@<TRIPOS>MOLECULE
*****
 66 69 0 0 0
SMALL
GASTEIGER

@<TRIPOS>ATOM
      1 C         -22.1850   11.0100  -68.6090 C.3     1  UNL1       -0.0177
      2 C         -22.0430   12.1280  -67.6120 C.3     1  UNL1       -0.0311
      3 C         -23.2760   12.1990  -66.7660 C.3     1  UNL1        0.0140
      4 N         -23.7040   10.9170  -66.2510 N.pl3   1  UNL1       -0.3141
      5 C         -23.6790    9.7780  -67.1640 C.3     1  UNL1        0.0140
      6 C         -22.2910    9.7240  -67.7940 C.3     1  UNL1       -0.0311
      7 C         -21.0190   10.8710  -69.5360 C.3     1  UNL1       -0.0819
      8 N         -21.1430   11.6260  -70.7540 N.4     1  UNL1        0.3873
      9 C         -19.8150   11.9380  -71.2540 C.3     1  UNL1       -0.0115
     10 C         -19.6600   13.4000  -71.5330 C.2     1  UNL1        0.1985
     11 C         -18.5070   15.5450  -71.2090 C.3     1  UNL1        0.0028
     12 N         -18.4490   14.0860  -71.1930 N.am    1  UNL1       -0.3091
     13 C         -17.1880   13.4830  -71.5500 C.3     1  UNL1        0.0028
     14 O         -20.2300   13.8170  -72.5870 O.2     1  UNL1       -0.2777
     15 C         -21.8010   10.8590  -71.8090 C.3     1  UNL1       -0.0659
     16 C         -23.5130   11.1210  -69.3480 C.3     1  UNL1        0.0516
     17 O         -23.5960   10.2420  -70.4140 O.3     1  UNL1       -0.3811
     18 C         -23.3150   10.9910  -71.5670 C.3     1  UNL1        0.0330
     19 C         -24.8010   10.9430  -65.3300 C.ar    1  UNL1        0.1390
     20 N         -25.9120   11.6780  -65.5370 N.ar    1  UNL1       -0.2387
     21 C         -24.8590   10.0700  -64.2480 C.ar    1  UNL1        0.0950
     22 C         -27.1030   11.3850  -64.9750 C.ar    1  UNL1        0.0344
     23 C         -26.0320    9.8720  -63.5400 C.ar    1  UNL1       -0.0208
     24 C         -27.2170   10.3890  -64.0380 C.ar    1  UNL1       -0.0110
     25 C         -23.7130    9.2850  -63.8910 C.1     1  UNL1        0.1029
     26 N         -22.6890    8.7430  -63.9990 N.1     1  UNL1       -0.1907
     27 C         -25.8950    8.8930  -62.4220 C.3     1  UNL1       -0.0249
     28 C         -26.8710    7.7540  -62.6730 C.3     1  UNL1       -0.0364
     29 C         -28.5640   10.2710  -63.4200 C.3     1  UNL1        0.0230
     30 N         -28.5010    9.5630  -62.1440 N.3     1  UNL1       -0.3119
     31 H         -27.7160    9.9240  -61.6010 H       1  UNL1        0.1222
     32 C         -28.3200    8.1380  -62.3520 C.3     1  UNL1       -0.0035
     33 H         -21.5598   12.4873  -70.3584 H       1  UNL1       -0.0810
     34 H         -21.9122   13.0546  -68.1308 H       1  UNL1        0.0286
     35 H         -21.1922   11.9458  -66.9893 H       1  UNL1        0.0286
     36 H         -24.0686   12.6066  -67.3581 H       1  UNL1        0.0464
     37 H         -23.0399   12.8117  -65.9211 H       1  UNL1        0.0464
     38 H         -23.8707    8.8738  -66.6250 H       1  UNL1        0.0464
     39 H         -24.4307    9.8837  -67.9181 H       1  UNL1        0.0464
     40 H         -21.5344    9.6930  -67.0380 H       1  UNL1        0.0286
     41 H         -22.1536    8.8505  -68.3965 H       1  UNL1        0.0286
     42 H         -20.1406   11.2029  -69.0230 H       1  UNL1        0.0065
     43 H         -20.9694    9.8396  -69.8164 H       1  UNL1        0.0065
     44 H         -19.0911   11.6456  -70.5223 H       1  UNL1        0.0152
     45 H         -19.6692   11.4054  -72.1705 H       1  UNL1        0.0152
     46 H         -17.5507   15.9429  -70.9405 H       1  UNL1        0.0428
     47 H         -19.2425   15.8804  -70.5079 H       1  UNL1        0.0428
     48 H         -18.7703   15.8807  -72.1902 H       1  UNL1        0.0428
     49 H         -17.2753   12.4177  -71.5002 H       1  UNL1        0.0428
     50 H         -16.4304   13.8110  -70.8693 H       1  UNL1        0.0428
     51 H         -16.9230   13.7730  -72.5453 H       1  UNL1        0.0428
     52 H         -21.5067    9.8316  -71.7572 H       1  UNL1        0.0081
     53 H         -21.5311   11.2239  -72.7780 H       1  UNL1        0.0081
     54 H         -24.3068   10.9072  -68.6631 H       1  UNL1        0.0565
     55 H         -23.5893   12.1150  -69.7366 H       1  UNL1        0.0565
     56 H         -23.8590   10.6030  -72.4027 H       1  UNL1        0.0541
     57 H         -23.6018   12.0147  -71.4454 H       1  UNL1        0.0541
     58 H         -27.9413   11.9182  -65.2541 H       1  UNL1        0.0833
     59 H         -26.1244    9.3695  -61.4918 H       1  UNL1        0.0314
     60 H         -24.8931    8.5205  -62.3746 H       1  UNL1        0.0314
     61 H         -26.5928    6.9227  -62.0594 H       1  UNL1        0.0281
     62 H         -26.8233    7.5097  -63.7136 H       1  UNL1        0.0281
     63 H         -29.2072    9.7340  -64.0854 H       1  UNL1        0.0474
     64 H         -28.9419   11.2561  -63.2419 H       1  UNL1        0.0474
     65 H         -28.6191    7.6238  -61.4626 H       1  UNL1        0.0424
     66 H         -28.9168    7.8614  -63.1960 H       1  UNL1        0.0424
@<TRIPOS>BOND
     1     1     7    1
     2     1    16    1
     3     1     6    1
     4     1     2    1
     5     2     3    1
     6     2    34    1
     7     2    35    1
     8     3     4    1
     9     3    36    1
    10     3    37    1
    11     4     5    1
    12     4    19    1
    13     5     6    1
    14     5    38    1
    15     5    39    1
    16     6    40    1
    17     6    41    1
    18     7     8    1
    19     7    42    1
    20     7    43    1
    21     8     9    1
    22     8    15    1
    23     8    33    1
    24     9    10    1
    25     9    44    1
    26     9    45    1
    27    10    14    2
    28    10    12   am
    29    11    12    1
    30    11    46    1
    31    11    47    1
    32    11    48    1
    33    12    13    1
    34    13    49    1
    35    13    50    1
    36    13    51    1
    37    15    18    1
    38    15    52    1
    39    15    53    1
    40    16    17    1
    41    16    54    1
    42    16    55    1
    43    17    18    1
    44    18    56    1
    45    18    57    1
    46    19    20   ar
    47    19    21   ar
    48    20    22   ar
    49    21    25    1
    50    21    23   ar
    51    22    24   ar
    52    22    58    1
    53    23    24   ar
    54    23    27    1
    55    24    29    1
    56    25    26    3
    57    27    28    1
    58    27    59    1
    59    27    60    1
    60    28    32    1
    61    28    61    1
    62    28    62    1
    63    29    30    1
    64    29    63    1
    65    29    64    1
    66    30    31    1
    67    30    32    1
    68    32    65    1
    69    32    66    1
