@<TRIPOS>MOLECULE
ZINC000514436632
70    74    1     0     0
SMALL
USER_CHARGES
@<TRIPOS>ATOM
1      O1      0.0021   -0.0041    0.0020 O.2      1 ZINC000514436632   -0.5000
2      C2     -0.0144    1.2086    0.0087 C.2      1 ZINC000514436632    0.5100
3      N3      1.1435    1.8983    0.0013 N.am     1 ZINC000514436632   -0.7200
4      C4      2.4220    1.1832   -0.0147 C.3      1 ZINC000514436632    0.1600
5      C5      3.5540    2.1779   -0.0202 C.ar     1 ZINC000514436632   -0.1200
6      C6      4.0579    2.6448   -1.2195 C.ar     1 ZINC000514436632   -0.0800
7      C7      5.0964    3.5575   -1.2245 C.ar     1 ZINC000514436632   -0.1200
8      C8      5.6462    4.0662   -2.5322 C.3      1 ZINC000514436632    0.1600
9      N9      4.9127    5.2685   -2.9356 N.am     1 ZINC000514436632   -0.7200
10     C10     5.2336    5.9007   -4.0818 C.2      1 ZINC000514436632    0.5100
11     O11     6.1295    5.4743   -4.7793 O.2      1 ZINC000514436632   -0.5000
12     C12     4.4791    7.1375   -4.4968 C.3      1 ZINC000514436632    0.0600
13     H13     3.4208    7.0008   -4.2744 H        1 ZINC000514436632    0.1300
14     C14     5.0012    8.3232   -3.7118 C.3      1 ZINC000514436632   -0.0300
15     N15     5.4457    9.4368   -4.5427 N.4      1 ZINC000514436632   -0.3700
16     H16     5.9462   10.0747   -3.9421 H        1 ZINC000514436632    0.4300
17     C17     6.3423    9.0773   -5.6251 C.3      1 ZINC000514436632   -0.0500
18     C18     5.9615    7.7701   -6.2994 C.3      1 ZINC000514436632    0.0400
19     N19     4.6444    7.3388   -5.9437 N.3      1 ZINC000514436632   -0.5200
20     C20     3.5459    8.1830   -6.4374 C.3      1 ZINC000514436632    0.0500
21     C21     3.9625    9.6450   -6.4579 C.3      1 ZINC000514436632   -0.1900
22     C22     4.2929   10.1719   -5.0837 C.3      1 ZINC000514436632   -0.0100
23     C23     5.6301    4.0036   -0.0302 C.ar     1 ZINC000514436632   -0.0900
24     C24     5.1258    3.5369    1.1695 C.ar     1 ZINC000514436632   -0.1200
25     C25     4.0847    2.6278    1.1746 C.ar     1 ZINC000514436632   -0.0800
26     C26    -1.3296    1.9443    0.0189 C.3      1 ZINC000514436632    0.0600
27     H27    -1.2522    2.8033    0.6854 H        1 ZINC000514436632    0.1300
28     C28    -1.6363    2.4305   -1.3826 C.3      1 ZINC000514436632   -0.0300
29     N29    -2.9350    2.0010   -1.8897 N.4      1 ZINC000514436632   -0.3700
30     H30    -2.9510    2.2061   -2.8775 H        1 ZINC000514436632    0.4300
31     C31    -3.2149    0.5851   -1.7432 C.3      1 ZINC000514436632   -0.0500
32     C32    -2.7236    0.0183   -0.4219 C.3      1 ZINC000514436632    0.0400
33     N33    -2.3805    1.0438    0.5151 N.3      1 ZINC000514436632   -0.5200
34     C34    -3.5053    1.8502    1.0126 C.3      1 ZINC000514436632    0.0500
35     C35    -4.5519    2.0365   -0.0743 C.3      1 ZINC000514436632   -0.1900
36     C36    -4.0166    2.7819   -1.2715 C.3      1 ZINC000514436632   -0.0100
37     H37     1.1304    2.8682    0.0067 H        1 ZINC000514436632    0.4000
38     H38     2.4967    0.5526    0.8712 H        1 ZINC000514436632    0.0900
39     H39     2.4797    0.5621   -0.9086 H        1 ZINC000514436632    0.0800
40     H40     3.6406    2.2965   -2.1527 H        1 ZINC000514436632    0.1300
41     H41     6.7024    4.3078   -2.4129 H        1 ZINC000514436632    0.0800
42     H42     5.5334    3.2979   -3.2972 H        1 ZINC000514436632    0.0800
43     H43     4.1962    5.6095   -2.3778 H        1 ZINC000514436632    0.4000
44     H44     4.2102    8.6774   -3.0508 H        1 ZINC000514436632    0.1400
45     H45     5.8391    7.9917   -3.0985 H        1 ZINC000514436632    0.1300
46     H46     6.3305    9.8730   -6.3698 H        1 ZINC000514436632    0.1400
47     H47     7.3532    8.9861   -5.2279 H        1 ZINC000514436632    0.1300
48     H48     6.0180    7.8991   -7.3803 H        1 ZINC000514436632    0.1200
49     H49     6.6686    6.9969   -5.9987 H        1 ZINC000514436632    0.1300
50     H50     3.2790    7.8713   -7.4472 H        1 ZINC000514436632    0.1100
51     H51     2.6808    8.0650   -5.7850 H        1 ZINC000514436632    0.0900
52     H52     4.8401    9.7548   -7.0949 H        1 ZINC000514436632    0.1000
53     H53     3.1486   10.2399   -6.8724 H        1 ZINC000514436632    0.1200
54     H54     3.4403   10.0227   -4.4212 H        1 ZINC000514436632    0.1300
55     H55     4.5256   11.2349   -5.1470 H        1 ZINC000514436632    0.1400
56     H56     6.4414    4.7165   -0.0341 H        1 ZINC000514436632    0.1300
57     H57     5.5430    3.8853    2.1028 H        1 ZINC000514436632    0.1300
58     H58     3.6907    2.2633    2.1118 H        1 ZINC000514436632    0.1300
59     H59    -1.6052    3.5200   -1.3867 H        1 ZINC000514436632    0.1400
60     H60    -0.8618    2.0618   -2.0552 H        1 ZINC000514436632    0.1300
61     H61    -4.2917    0.4310   -1.8126 H        1 ZINC000514436632    0.1400
62     H62    -2.7320    0.0455   -2.5579 H        1 ZINC000514436632    0.1300
63     H63    -3.5031   -0.6126    0.0051 H        1 ZINC000514436632    0.1200
64     H64    -1.8377   -0.5900   -0.6045 H        1 ZINC000514436632    0.1300
65     H65    -3.9592    1.3462    1.8658 H        1 ZINC000514436632    0.1100
66     H66    -3.1363    2.8264    1.3272 H        1 ZINC000514436632    0.0900
67     H67    -4.9029    1.0574   -0.4002 H        1 ZINC000514436632    0.1000
68     H68    -5.3934    2.5949    0.3357 H        1 ZINC000514436632    0.1200
69     H69    -3.6157    3.7440   -0.9527 H        1 ZINC000514436632    0.1300
70     H70    -4.8196    2.9404   -1.9913 H        1 ZINC000514436632    0.1400
@<TRIPOS>BOND
1     1     2     2
2     2     3     am
3     2     26    1
4     3     4     1
5     3     37    1
6     4     5     1
7     4     38    1
8     4     39    1
9     5     25    ar
10    5     6     ar
11    6     7     ar
12    6     40    1
13    7     8     1
14    7     23    ar
15    8     9     1
16    8     41    1
17    8     42    1
18    9     10    am
19    9     43    1
20    10    11    2
21    10    12    1
22    12    13    1
23    12    19    1
24    12    14    1
25    14    15    1
26    14    44    1
27    14    45    1
28    15    16    1
29    15    22    1
30    15    17    1
31    17    18    1
32    17    46    1
33    17    47    1
34    18    19    1
35    18    48    1
36    18    49    1
37    19    20    1
38    20    21    1
39    20    50    1
40    20    51    1
41    21    22    1
42    21    52    1
43    21    53    1
44    22    54    1
45    22    55    1
46    23    24    ar
47    23    56    1
48    24    25    ar
49    24    57    1
50    25    58    1
51    26    27    1
52    26    33    1
53    26    28    1
54    28    29    1
55    28    59    1
56    28    60    1
57    29    30    1
58    29    36    1
59    29    31    1
60    31    32    1
61    31    61    1
62    31    62    1
63    32    33    1
64    32    63    1
65    32    64    1
66    33    34    1
67    34    35    1
68    34    65    1
69    34    66    1
70    35    36    1
71    35    67    1
72    35    68    1
73    36    69    1
74    36    70    1
@<TRIPOS>SUBSTRUCTURE
1   ZINC000514436632 1     RESIDUE    1   A     ZIN   1
