@<TRIPOS>MOLECULE
ZINC000101042701
50    51    1     0     0
SMALL
USER_CHARGES
@<TRIPOS>ATOM
1      C1      0.2028    1.5894   -0.1089 C.3      1 ZINC000101042701   -0.0600
2      N2      0.1540    0.1361   -0.1699 N.4      1 ZINC000101042701   -0.3200
3      H3     -0.8846   -0.0196   -0.1799 H        1 ZINC000101042701    0.4200
4      C4      0.4988   -0.3524   -1.3656 C.2      1 ZINC000101042701   -0.0900
5      C5      1.6835   -0.1396   -1.8666 C.2      1 ZINC000101042701   -0.0500
6      C6      2.7921    0.4490   -1.1101 C.3      1 ZINC000101042701   -0.1400
7      C7      2.8572    0.4264    0.3889 C.3      1 ZINC000101042701   -0.1400
8      C8      2.0944   -0.7211    1.0556 C.3      1 ZINC000101042701   -0.1000
9      H9      2.4397   -0.7583    2.1132 H        1 ZINC000101042701    0.1200
10     C10     2.5611   -2.0254    0.4043 C.3      1 ZINC000101042701   -0.1600
11     C11     4.0503   -2.2327    0.6878 C.3      1 ZINC000101042701   -0.0100
12     N12     4.4982   -3.4843    0.0628 N.4      1 ZINC000101042701   -0.2700
13     C13     4.2815   -3.4120   -1.3883 C.3      1 ZINC000101042701   -0.0500
14     C14     5.9280   -3.6833    0.3350 C.3      1 ZINC000101042701   -0.0500
15     C15     3.7331   -4.6094    0.6167 C.3      1 ZINC000101042701   -0.0500
16     C16     0.5658   -0.5073    1.0563 C.3      1 ZINC000101042701    0.0400
17     H17     0.2654    0.1456    1.9228 H        1 ZINC000101042701    0.1600
18     C18    -0.1143   -1.8949    1.2267 C.3      1 ZINC000101042701   -0.1500
19     C19    -1.1595   -2.1684    0.1909 C.3      1 ZINC000101042701   -0.1500
20     C20    -0.5520   -2.4655   -1.1654 C.3      1 ZINC000101042701   -0.1500
21     C21    -0.4804   -1.2983   -2.0832 C.3      1 ZINC000101042701   -0.0700
22     H22     1.2399    1.9151   -0.0286 H        1 ZINC000101042701    0.1200
23     H23    -0.2399    2.0062   -1.0136 H        1 ZINC000101042701    0.1300
24     H24    -0.3551    1.9355    0.7612 H        1 ZINC000101042701    0.1300
25     H25     1.8625   -0.4148   -2.9082 H        1 ZINC000101042701    0.1600
26     H26     3.7108   -0.0210   -1.4760 H        1 ZINC000101042701    0.0900
27     H27     2.8668    1.4974   -1.4169 H        1 ZINC000101042701    0.1100
28     H28     3.9207    0.3044    0.6638 H        1 ZINC000101042701    0.0900
29     H29     2.5509    1.3769    0.8070 H        1 ZINC000101042701    0.0900
30     H30     1.9934   -2.8602    0.8152 H        1 ZINC000101042701    0.1000
31     H31     2.4003   -1.9717   -0.6725 H        1 ZINC000101042701    0.1000
32     H32     4.6180   -1.3979    0.2768 H        1 ZINC000101042701    0.1300
33     H33     4.2111   -2.2864    1.7645 H        1 ZINC000101042701    0.1300
34     H34     4.8492   -2.5772   -1.7993 H        1 ZINC000101042701    0.1200
35     H35     4.6138   -4.3407   -1.8521 H        1 ZINC000101042701    0.1300
36     H36     3.2206   -3.2643   -1.5903 H        1 ZINC000101042701    0.1200
37     H37     6.0888   -3.7370    1.4118 H        1 ZINC000101042701    0.1300
38     H38     6.2603   -4.6121   -0.1287 H        1 ZINC000101042701    0.1300
39     H39     6.4957   -2.8485   -0.0759 H        1 ZINC000101042701    0.1200
40     H40     2.6722   -4.4618    0.4147 H        1 ZINC000101042701    0.1200
41     H41     4.0654   -5.5381    0.1529 H        1 ZINC000101042701    0.1300
42     H42     3.8939   -4.6631    1.6934 H        1 ZINC000101042701    0.1300
43     H43     0.5397   -2.7334    1.3390 H        1 ZINC000101042701    0.1100
44     H44    -0.6660   -1.8471    2.1986 H        1 ZINC000101042701    0.1000
45     H45    -1.7355   -3.0511    0.5151 H        1 ZINC000101042701    0.1000
46     H46    -1.8612   -1.3392    0.1278 H        1 ZINC000101042701    0.0800
47     H47     0.4480   -2.8754   -1.0394 H        1 ZINC000101042701    0.0700
48     H48    -1.1619   -3.2353   -1.6548 H        1 ZINC000101042701    0.0900
49     H49    -1.4519   -0.8259   -2.1850 H        1 ZINC000101042701    0.1000
50     H50    -0.0759   -1.5927   -3.0472 H        1 ZINC000101042701    0.1200
@<TRIPOS>BOND
1     1     2     1
2     1     22    1
3     1     23    1
4     1     24    1
5     2     3     1
6     2     16    1
7     2     4     1
8     4     21    1
9     4     5     2
10    5     6     1
11    5     25    1
12    6     7     1
13    6     26    1
14    6     27    1
15    7     8     1
16    7     28    1
17    7     29    1
18    8     9     1
19    8     10    1
20    8     16    1
21    10    11    1
22    10    30    1
23    10    31    1
24    11    12    1
25    11    32    1
26    11    33    1
27    12    13    1
28    12    14    1
29    12    15    1
30    13    34    1
31    13    35    1
32    13    36    1
33    14    37    1
34    14    38    1
35    14    39    1
36    15    40    1
37    15    41    1
38    15    42    1
39    16    17    1
40    16    18    1
41    18    19    1
42    18    43    1
43    18    44    1
44    19    20    1
45    19    45    1
46    19    46    1
47    20    21    1
48    20    47    1
49    20    48    1
50    21    49    1
51    21    50    1
@<TRIPOS>SUBSTRUCTURE
1   ZINC000101042701 1     RESIDUE    1   A     ZIN   1
