@<TRIPOS>MOLECULE
ZINC001164872284
67    70    1     0     0
SMALL
USER_CHARGES
@<TRIPOS>ATOM
1      C1     -0.1271    1.3228    0.1733 C.3      1 ZINC001164872284    0.0700
2      N2     -0.0894   -0.1410    0.1279 N.am     1 ZINC001164872284   -0.5900
3      C3     -0.0657   -0.9121    1.3734 C.3      1 ZINC001164872284    0.0600
4      C4     -0.0764   -0.7783   -1.0596 C.2      1 ZINC001164872284    0.4900
5      O5     -0.0960   -0.1400   -2.0906 O.2      1 ZINC001164872284   -0.5300
6      C6     -0.0376   -2.2841   -1.1062 C.3      1 ZINC001164872284   -0.0400
7      N7     -0.0303   -2.7312   -2.5075 N.4      1 ZINC001164872284   -0.3600
8      H8      0.7403   -2.2852   -2.9791 H        1 ZINC001164872284    0.4200
9      C9     -1.2930   -2.2960   -3.1411 C.3      1 ZINC001164872284   -0.0400
10     C10    -1.0095   -1.9912   -4.5923 C.3      1 ZINC001164872284    0.0400
11     O11    -1.0097   -3.1821   -5.4029 O.3      1 ZINC001164872284   -0.3600
12     C12    -0.9567   -4.4497   -4.7294 C.3      1 ZINC001164872284    0.0500
13     C13     0.3219   -4.6725   -3.9597 C.3      1 ZINC001164872284   -0.0900
14     C14     0.6182   -6.1752   -3.8752 C.3      1 ZINC001164872284   -0.1100
15     C15     1.9371   -6.4038   -3.1375 C.3      1 ZINC001164872284    0.0600
16     N16     3.0243   -5.7094   -3.8385 N.3      1 ZINC001164872284   -0.4800
17     C17     4.2488   -5.9957   -3.2606 C.ar     1 ZINC001164872284    0.3700
18     N18     4.3428   -6.1403   -1.9482 N.ar     1 ZINC001164872284   -0.5100
19     C19     5.4869   -6.4259   -1.3623 C.ar     1 ZINC001164872284    0.1900
20     C20     6.6569   -6.5918   -2.0948 C.ar     1 ZINC001164872284   -0.2100
21     C21     7.9088   -6.9755   -1.3510 C.3      1 ZINC001164872284    0.0400
22     N22     9.0303   -6.0961   -1.7140 N.4      1 ZINC001164872284   -0.5100
23     H23     8.6760   -5.2039   -2.0248 H        1 ZINC001164872284    0.4300
24     H24     9.6308   -5.9633   -0.9140 H        1 ZINC001164872284    0.4400
25     C25     9.7841   -6.7327   -2.7979 C.3      1 ZINC001164872284   -0.0200
26     C26     8.8485   -7.5240   -3.7071 C.3      1 ZINC001164872284   -0.1500
27     C27     7.8415   -6.5549   -4.3286 C.3      1 ZINC001164872284   -0.1200
28     C28     6.6189   -6.4305   -3.4579 C.ar     1 ZINC001164872284    0.0300
29     C29     5.3896   -6.1383   -4.0680 C.ar     1 ZINC001164872284   -0.0500
30     C30     5.3005   -5.9821   -5.4886 C.1      1 ZINC001164872284    0.2400
31     N31     5.2297   -5.8583   -6.6156 N.1      1 ZINC001164872284   -0.3600
32     C32     2.7894   -4.2611   -3.8835 C.3      1 ZINC001164872284    0.0600
33     C33     1.4954   -3.9738   -4.6472 C.3      1 ZINC001164872284   -0.1200
34     C34     0.1539   -4.1198   -2.5319 C.3      1 ZINC001164872284   -0.0400
35     H35     0.8909    1.7124    0.1815 H        1 ZINC001164872284    0.0700
36     H36    -0.6535    1.7000   -0.7035 H        1 ZINC001164872284    0.0900
37     H37    -0.6467    1.6451    1.0756 H        1 ZINC001164872284    0.0900
38     H38    -0.0808   -0.2300    2.2234 H        1 ZINC001164872284    0.1000
39     H39    -0.9390   -1.5631    1.4143 H        1 ZINC001164872284    0.0700
40     H40     0.8403   -1.5170    1.4090 H        1 ZINC001164872284    0.0700
41     H41     0.8633   -2.6400   -0.6066 H        1 ZINC001164872284    0.1600
42     H42    -0.9160   -2.6860   -0.6012 H        1 ZINC001164872284    0.1600
43     H43    -2.0457   -3.0715   -3.0556 H        1 ZINC001164872284    0.1400
44     H44    -1.6457   -1.3878   -2.6471 H        1 ZINC001164872284    0.1500
45     H45    -1.7776   -1.3107   -4.9633 H        1 ZINC001164872284    0.1300
46     H46    -0.0399   -1.5020   -4.6711 H        1 ZINC001164872284    0.0900
47     H47    -1.8016   -4.5429   -4.0495 H        1 ZINC001164872284    0.0700
48     H48    -1.0434   -5.2442   -5.4788 H        1 ZINC001164872284    0.1200
49     H49    -0.1910   -6.6716   -3.3384 H        1 ZINC001164872284    0.1000
50     H50     0.6881   -6.5854   -4.8832 H        1 ZINC001164872284    0.1000
51     H51     1.8618   -6.0315   -2.1174 H        1 ZINC001164872284    0.0600
52     H52     2.1542   -7.4740   -3.1108 H        1 ZINC001164872284    0.1000
53     H53     5.5172   -6.5333   -0.2881 H        1 ZINC001164872284    0.1800
54     H54     7.7260   -6.8982   -0.2792 H        1 ZINC001164872284    0.1500
55     H55     8.1684   -8.0056   -1.5952 H        1 ZINC001164872284    0.1500
56     H56    10.2902   -5.9650   -3.3832 H        1 ZINC001164872284    0.1400
57     H57    10.5268   -7.4071   -2.3716 H        1 ZINC001164872284    0.1400
58     H58     9.4259   -8.0074   -4.4951 H        1 ZINC001164872284    0.1300
59     H59     8.3196   -8.2766   -3.1224 H        1 ZINC001164872284    0.1000
60     H60     8.3061   -5.5749   -4.4379 H        1 ZINC001164872284    0.1100
61     H61     7.5470   -6.9238   -5.3111 H        1 ZINC001164872284    0.1100
62     H62     2.7126   -3.8711   -2.8695 H        1 ZINC001164872284    0.0400
63     H63     3.6240   -3.7753   -4.3920 H        1 ZINC001164872284    0.0900
64     H64     1.5907   -4.3503   -5.6689 H        1 ZINC001164872284    0.1100
65     H65     1.3241   -2.8992   -4.6803 H        1 ZINC001164872284    0.0800
66     H66     1.0371   -4.3660   -1.9413 H        1 ZINC001164872284    0.1300
67     H67    -0.7128   -4.5974   -2.0679 H        1 ZINC001164872284    0.1400
@<TRIPOS>BOND
1     1     2     1
2     1     35    1
3     1     36    1
4     1     37    1
5     2     3     1
6     2     4     am
7     3     38    1
8     3     39    1
9     3     40    1
10    4     5     2
11    4     6     1
12    6     7     1
13    6     41    1
14    6     42    1
15    7     8     1
16    7     34    1
17    7     9     1
18    9     10    1
19    9     43    1
20    9     44    1
21    10    11    1
22    10    45    1
23    10    46    1
24    11    12    1
25    12    13    1
26    12    47    1
27    12    48    1
28    13    33    1
29    13    14    1
30    13    34    1
31    14    15    1
32    14    49    1
33    14    50    1
34    15    16    1
35    15    51    1
36    15    52    1
37    16    17    1
38    16    32    1
39    17    29    ar
40    17    18    ar
41    18    19    ar
42    19    20    ar
43    19    53    1
44    20    28    ar
45    20    21    1
46    21    22    1
47    21    54    1
48    21    55    1
49    22    23    1
50    22    24    1
51    22    25    1
52    25    26    1
53    25    56    1
54    25    57    1
55    26    27    1
56    26    58    1
57    26    59    1
58    27    28    1
59    27    60    1
60    27    61    1
61    28    29    ar
62    29    30    1
63    30    31    3
64    32    33    1
65    32    62    1
66    32    63    1
67    33    64    1
68    33    65    1
69    34    66    1
70    34    67    1
@<TRIPOS>SUBSTRUCTURE
1   ZINC001164872284 1     RESIDUE    1   A     ZIN   1
