@<TRIPOS>MOLECULE
ZINC001164979321
63    67    1     0     0
SMALL
USER_CHARGES
@<TRIPOS>ATOM
1      N1     -1.0777    0.6929   -3.1560 N.1      1 ZINC001164979321   -0.3600
2      C2     -0.7799    1.3045   -2.2463 C.1      1 ZINC001164979321    0.2400
3      C3     -0.4044    2.0755   -1.0994 C.ar     1 ZINC001164979321   -0.0300
4      C4     -1.2361    2.1255    0.0312 C.ar     1 ZINC001164979321    0.3700
5      N5     -2.4317    1.4284    0.0412 N.3      1 ZINC001164979321   -0.4900
6      C6     -2.4443    0.4196    1.1105 C.3      1 ZINC001164979321    0.0600
7      C7     -3.6939   -0.4496    0.9648 C.3      1 ZINC001164979321   -0.1100
8      C8     -4.9482    0.4265    1.0740 C.3      1 ZINC001164979321   -0.1300
9      H9     -4.9939    0.8457    2.0791 H        1 ZINC001164979321    0.1100
10     C10    -6.1751   -0.4889    0.8636 C.3      1 ZINC001164979321   -0.0100
11     N11    -7.3538    0.3106    0.5986 N.4      1 ZINC001164979321   -0.3800
12     H12    -7.2532    1.2099    1.0448 H        1 ZINC001164979321    0.4200
13     C13    -8.5348   -0.3717    1.1441 C.3      1 ZINC001164979321    0.0500
14     C14    -9.7452    0.5111    0.9804 C.ar     1 ZINC001164979321   -0.2200
15     C15   -10.0938    1.4152    1.9718 C.ar     1 ZINC001164979321   -0.0500
16     C16   -11.2153    2.2074    1.7779 C.ar     1 ZINC001164979321   -0.1600
17     C17   -11.9430    2.0703    0.6112 C.ar     1 ZINC001164979321    0.1400
18     N18   -11.5817    1.1993   -0.3108 N.ar     1 ZINC001164979321   -0.4700
19     C19   -10.5185    0.4336   -0.1627 C.ar     1 ZINC001164979321    0.1300
20     C20    -7.5301    0.5028   -0.8391 C.3      1 ZINC001164979321   -0.0600
21     C21    -6.7655    1.6480   -1.3956 C.3      1 ZINC001164979321    0.0500
22     O22    -5.3610    1.4025   -1.1843 O.3      1 ZINC001164979321   -0.3400
23     C23    -4.8896    1.5580    0.0808 C.3      1 ZINC001164979321    0.1100
24     H24    -5.6015    2.2593    0.5161 H        1 ZINC001164979321    0.0200
25     C25    -3.5728    2.3424    0.1827 C.3      1 ZINC001164979321    0.0700
26     N26    -0.8774    2.8385    1.0875 N.ar     1 ZINC001164979321   -0.5000
27     C27     0.2563    3.5066    1.1202 C.ar     1 ZINC001164979321    0.1800
28     C28     1.1337    3.5035    0.0410 C.ar     1 ZINC001164979321   -0.2000
29     C29     0.8040    2.7895   -1.0837 C.ar     1 ZINC001164979321    0.0300
30     C30     1.6643    2.7706   -2.3199 C.3      1 ZINC001164979321   -0.1200
31     C31     3.1356    2.9732   -1.9542 C.3      1 ZINC001164979321   -0.1500
32     C32     3.4380    4.4686   -1.9716 C.3      1 ZINC001164979321   -0.0200
33     N33     2.6178    5.1700   -0.9798 N.4      1 ZINC001164979321   -0.5100
34     H34     3.0902    6.0101   -0.6810 H        1 ZINC001164979321    0.4400
35     H35     1.7247    5.4080   -1.3844 H        1 ZINC001164979321    0.4300
36     C36     2.4219    4.2717    0.1744 C.3      1 ZINC001164979321    0.0500
37     H37    -1.5547   -0.2053    1.0324 H        1 ZINC001164979321    0.0900
38     H38    -2.4575    0.9169    2.0804 H        1 ZINC001164979321    0.0700
39     H39    -3.6805   -0.9443   -0.0064 H        1 ZINC001164979321    0.0900
40     H40    -3.7068   -1.2015    1.7539 H        1 ZINC001164979321    0.0900
41     H41    -5.9905   -1.1519    0.0183 H        1 ZINC001164979321    0.1400
42     H42    -6.3380   -1.0867    1.7604 H        1 ZINC001164979321    0.1400
43     H43    -8.6930   -1.3080    0.6089 H        1 ZINC001164979321    0.1400
44     H44    -8.3776   -0.5802    2.2023 H        1 ZINC001164979321    0.1400
45     H45    -9.5061    1.5002    2.8739 H        1 ZINC001164979321    0.1400
46     H46   -11.5164    2.9222    2.5294 H        1 ZINC001164979321    0.1500
47     H47   -12.8179    2.6834    0.4528 H        1 ZINC001164979321    0.1700
48     H48   -10.2538   -0.2683   -0.9396 H        1 ZINC001164979321    0.1600
49     H49    -7.2157   -0.4062   -1.3519 H        1 ZINC001164979321    0.1400
50     H50    -8.5894    0.6622   -1.0405 H        1 ZINC001164979321    0.1400
51     H51    -6.9657    1.7390   -2.4632 H        1 ZINC001164979321    0.1500
52     H52    -7.0582    2.5666   -0.8871 H        1 ZINC001164979321    0.0800
53     H53    -3.5207    2.8354    1.1535 H        1 ZINC001164979321    0.0800
54     H54    -3.5397    3.0958   -0.6042 H        1 ZINC001164979321    0.1000
55     H55     0.5109    4.0706    2.0054 H        1 ZINC001164979321    0.1800
56     H56     1.5480    1.8113   -2.8241 H        1 ZINC001164979321    0.1100
57     H57     1.3474    3.5692   -2.9906 H        1 ZINC001164979321    0.1100
58     H58     3.3237    2.5731   -0.9579 H        1 ZINC001164979321    0.1000
59     H59     3.7673    2.4634   -2.6818 H        1 ZINC001164979321    0.1300
60     H60     4.4921    4.6251   -1.7422 H        1 ZINC001164979321    0.1400
61     H61     3.2232    4.8675   -2.9630 H        1 ZINC001164979321    0.1400
62     H62     2.3899    4.8650    1.0882 H        1 ZINC001164979321    0.1500
63     H63     3.2576    3.5742    0.2309 H        1 ZINC001164979321    0.1500
@<TRIPOS>BOND
1     1     2     3
2     2     3     1
3     3     29    ar
4     3     4     ar
5     4     5     1
6     4     26    ar
7     5     25    1
8     5     6     1
9     6     7     1
10    6     37    1
11    6     38    1
12    7     8     1
13    7     39    1
14    7     40    1
15    8     9     1
16    8     23    1
17    8     10    1
18    10    11    1
19    10    41    1
20    10    42    1
21    11    12    1
22    11    13    1
23    11    20    1
24    13    14    1
25    13    43    1
26    13    44    1
27    14    19    ar
28    14    15    ar
29    15    16    ar
30    15    45    1
31    16    17    ar
32    16    46    1
33    17    18    ar
34    17    47    1
35    18    19    ar
36    19    48    1
37    20    21    1
38    20    49    1
39    20    50    1
40    21    22    1
41    21    51    1
42    21    52    1
43    22    23    1
44    23    24    1
45    23    25    1
46    25    53    1
47    25    54    1
48    26    27    ar
49    27    28    ar
50    27    55    1
51    28    36    1
52    28    29    ar
53    29    30    1
54    30    31    1
55    30    56    1
56    30    57    1
57    31    32    1
58    31    58    1
59    31    59    1
60    32    33    1
61    32    60    1
62    32    61    1
63    33    34    1
64    33    35    1
65    33    36    1
66    36    62    1
67    36    63    1
@<TRIPOS>SUBSTRUCTURE
1   ZINC001164979321 1     RESIDUE    1   A     ZIN   1
