@<TRIPOS>MOLECULE
ZINC000104309836
44    45    1     0     0
SMALL
USER_CHARGES
@<TRIPOS>ATOM
1      C1     -0.0178    1.4584    0.0101 C.2      1 ZINC000104309836    0.1600
2      C2      0.0021   -0.0041    0.0020 C.2      1 ZINC000104309836    0.1600
3      N3     -1.1159   -0.6700    0.0091 N.2      1 ZINC000104309836   -0.2200
4      N4     -1.0969   -2.0708    0.0014 N.pl3    1 ZINC000104309836   -0.5700
5      C5     -2.2741   -2.7720    0.0089 C.cat    1 ZINC000104309836    0.7700
6      N6     -3.3987   -2.0585    0.0181 N.pl3    1 ZINC000104309836   -0.6500
7      H7     -3.3668   -1.1042   -0.1527 H        1 ZINC000104309836    0.4500
8      C8     -4.6838   -2.7095    0.2847 C.3      1 ZINC000104309836    0.0900
9      C9     -5.1605   -3.4881   -0.9283 C.3      1 ZINC000104309836   -0.1600
10     C10    -4.1228   -4.4810   -1.4238 C.3      1 ZINC000104309836   -0.1500
11     C11    -3.2966   -4.9851   -0.2313 C.3      1 ZINC000104309836    0.0900
12     N12    -2.1844   -4.0708    0.0011 N.pl3    1 ZINC000104309836   -0.6500
13     N13     1.1002    2.1243    0.0030 N.2      1 ZINC000104309836   -0.2200
14     N14     1.0812    3.5252    0.0107 N.pl3    1 ZINC000104309836   -0.5700
15     C15     2.2584    4.2264    0.0032 C.cat    1 ZINC000104309836    0.7700
16     N16     3.3829    3.5129   -0.0167 N.pl3    1 ZINC000104309836   -0.6500
17     H17     3.3477    2.5605   -0.1971 H        1 ZINC000104309836    0.4500
18     C18     4.6730    4.1612    0.2323 C.3      1 ZINC000104309836    0.0900
19     C19     5.1264    4.9528   -0.9811 C.3      1 ZINC000104309836   -0.1600
20     C20     4.0796    5.9508   -1.4461 C.3      1 ZINC000104309836   -0.1500
21     C21     3.2763    6.4420   -0.2327 C.3      1 ZINC000104309836    0.0900
22     N22     2.1687    5.5252    0.0110 N.pl3    1 ZINC000104309836   -0.6500
23     H23    -0.9603    1.9857    0.0174 H        1 ZINC000104309836    0.1600
24     H24     0.9446   -0.5313   -0.0098 H        1 ZINC000104309836    0.1600
25     H25    -0.2504   -2.5443   -0.0092 H        1 ZINC000104309836    0.4200
26     H26    -4.5714   -3.3923    1.1269 H        1 ZINC000104309836    0.1000
27     H27    -5.4243   -1.9504    0.5366 H        1 ZINC000104309836    0.1300
28     H28    -6.0695   -4.0292   -0.6655 H        1 ZINC000104309836    0.1100
29     H29    -5.3891   -2.7865   -1.7305 H        1 ZINC000104309836    0.0900
30     H30    -4.6235   -5.3229   -1.9019 H        1 ZINC000104309836    0.1100
31     H31    -3.4647   -3.9919   -2.1420 H        1 ZINC000104309836    0.0800
32     H32    -3.9278   -5.0286    0.6562 H        1 ZINC000104309836    0.1100
33     H33    -2.9091   -5.9798   -0.4518 H        1 ZINC000104309836    0.1300
34     H34    -1.3118   -4.4599    0.1684 H        1 ZINC000104309836    0.4300
35     H35     0.2347    3.9987    0.0213 H        1 ZINC000104309836    0.4200
36     H36     4.5767    4.8348    1.0838 H        1 ZINC000104309836    0.1000
37     H37     5.4181    3.3994    0.4618 H        1 ZINC000104309836    0.1300
38     H38     6.0403    5.4912   -0.7300 H        1 ZINC000104309836    0.1100
39     H39     5.3396    4.2599   -1.7951 H        1 ZINC000104309836    0.0900
40     H40     4.5711    6.7979   -1.9246 H        1 ZINC000104309836    0.1100
41     H41     3.4079    5.4695   -2.1569 H        1 ZINC000104309836    0.0800
42     H42     3.9244    6.4760    0.6430 H        1 ZINC000104309836    0.1100
43     H43     2.8848    7.4390   -0.4350 H        1 ZINC000104309836    0.1300
44     H44     1.2995    5.9123    0.1992 H        1 ZINC000104309836    0.4300
@<TRIPOS>BOND
1     1     2     1
2     1     13    2
3     1     23    1
4     2     3     2
5     2     24    1
6     3     4     1
7     4     5     ar
8     4     25    1
9     5     12    ar
10    5     6     ar
11    6     7     1
12    6     8     1
13    8     9     1
14    8     26    1
15    8     27    1
16    9     10    1
17    9     28    1
18    9     29    1
19    10    11    1
20    10    30    1
21    10    31    1
22    11    12    1
23    11    32    1
24    11    33    1
25    12    34    1
26    13    14    1
27    14    15    ar
28    14    35    1
29    15    22    ar
30    15    16    ar
31    16    17    1
32    16    18    1
33    18    19    1
34    18    36    1
35    18    37    1
36    19    20    1
37    19    38    1
38    19    39    1
39    20    21    1
40    20    40    1
41    20    41    1
42    21    22    1
43    21    42    1
44    21    43    1
45    22    44    1
@<TRIPOS>SUBSTRUCTURE
1   ZINC000104309836 1     RESIDUE    1   A     ZIN   1
