@<TRIPOS>MOLECULE
ZINC000095523345
56    59    1     0     0
SMALL
USER_CHARGES
@<TRIPOS>ATOM
1      C1     -3.7459   -5.7807   -0.9415 C.ar     1 ZINC000095523345   -0.1200
2      C2     -4.7468   -5.0158   -0.3720 C.ar     1 ZINC000095523345   -0.1000
3      C3     -4.4309   -3.8701    0.3335 C.ar     1 ZINC000095523345   -0.1300
4      C4     -3.1021   -3.4908    0.4695 C.ar     1 ZINC000095523345    0.0900
5      O5     -2.7849   -2.3880    1.2021 O.3      1 ZINC000095523345   -0.3200
6      C6     -2.1541   -2.6424    2.4616 C.3      1 ZINC000095523345    0.0700
7      C7     -0.6536   -2.7671    2.3000 C.3      1 ZINC000095523345   -0.1600
8      C8     -0.2314   -3.9740    1.4755 C.3      1 ZINC000095523345   -0.1100
9      H9     -0.6935   -4.8704    1.8892 H        1 ZINC000095523345    0.1000
10     C10     1.2906   -4.1182    1.5369 C.3      1 ZINC000095523345   -0.0100
11     N11     1.6971   -4.4371    2.9121 N.4      1 ZINC000095523345   -0.3700
12     H12     1.2892   -3.7587    3.5377 H        1 ZINC000095523345    0.4100
13     C13     3.1700   -4.3493    3.0071 C.3      1 ZINC000095523345    0.0000
14     C14     3.5521   -4.1483    4.4519 C.3      1 ZINC000095523345   -0.1500
15     C15     3.8529   -5.4816    5.1587 C.3      1 ZINC000095523345    0.0400
16     N16     2.8937   -6.5452    4.7823 N.3      1 ZINC000095523345   -0.5500
17     C17     3.0117   -7.7023    5.6797 C.3      1 ZINC000095523345    0.1000
18     C18     4.3587   -8.3505    5.4891 C.ar     1 ZINC000095523345   -0.0500
19     C19     4.5366   -9.3545    4.5496 C.ar     1 ZINC000095523345   -0.1500
20     C20     5.7865   -9.9258    4.4029 C.ar     1 ZINC000095523345    0.1000
21     N21     6.8017   -9.5266    5.1438 N.ar     1 ZINC000095523345   -0.4800
22     C22     6.6693   -8.5747    6.0467 C.ar     1 ZINC000095523345    0.1000
23     C23     5.4509   -7.9531    6.2451 C.ar     1 ZINC000095523345   -0.1700
24     C24     1.5244   -6.0885    4.7032 C.3      1 ZINC000095523345    0.0400
25     C25     1.2121   -5.7062    3.2436 C.3      1 ZINC000095523345   -0.0300
26     C26    -0.6621   -3.8130    0.0175 C.3      1 ZINC000095523345   -0.0700
27     C27    -2.1083   -4.2505   -0.1130 C.ar     1 ZINC000095523345   -0.1300
28     C28    -2.4219   -5.3974   -0.8132 C.ar     1 ZINC000095523345   -0.1000
29     H29    -3.9968   -6.6806   -1.4833 H        1 ZINC000095523345    0.1300
30     H30    -5.7791   -5.3145   -0.4790 H        1 ZINC000095523345    0.1300
31     H31    -5.2139   -3.2725    0.7766 H        1 ZINC000095523345    0.1300
32     H32    -2.3738   -1.8217    3.1445 H        1 ZINC000095523345    0.1100
33     H33    -2.5477   -3.5693    2.8786 H        1 ZINC000095523345    0.0600
34     H34    -0.2783   -1.8652    1.8164 H        1 ZINC000095523345    0.0900
35     H35    -0.2011   -2.8440    3.2887 H        1 ZINC000095523345    0.0600
36     H36     1.6069   -4.9197    0.8694 H        1 ZINC000095523345    0.1400
37     H37     1.7569   -3.1827    1.2279 H        1 ZINC000095523345    0.1400
38     H38     3.6157   -5.2723    2.6363 H        1 ZINC000095523345    0.1400
39     H39     3.5247   -3.5060    2.4146 H        1 ZINC000095523345    0.1300
40     H40     4.4373   -3.5141    4.4996 H        1 ZINC000095523345    0.1200
41     H41     2.7324   -3.6498    4.9693 H        1 ZINC000095523345    0.0800
42     H42     4.8598   -5.8034    4.8927 H        1 ZINC000095523345    0.1000
43     H43     3.8059   -5.3286    6.2369 H        1 ZINC000095523345    0.0600
44     H44     2.9104   -7.3720    6.7135 H        1 ZINC000095523345    0.0600
45     H45     2.2262   -8.4221    5.4496 H        1 ZINC000095523345    0.1000
46     H46     3.7089   -9.6862    3.9404 H        1 ZINC000095523345    0.1300
47     H47     5.9333  -10.7084    3.6733 H        1 ZINC000095523345    0.1600
48     H48     7.5237   -8.2745    6.6351 H        1 ZINC000095523345    0.1600
49     H49     5.3488   -7.1739    6.9859 H        1 ZINC000095523345    0.1300
50     H50     0.8544   -6.8863    5.0235 H        1 ZINC000095523345    0.1100
51     H51     1.3922   -5.2182    5.3459 H        1 ZINC000095523345    0.0700
52     H52     0.1319   -5.7185    3.0985 H        1 ZINC000095523345    0.1300
53     H53     1.6643   -6.4439    2.5806 H        1 ZINC000095523345    0.1400
54     H54    -0.5680   -2.7682   -0.2784 H        1 ZINC000095523345    0.0900
55     H55    -0.0332   -4.4342   -0.6203 H        1 ZINC000095523345    0.0900
56     H56    -1.6387   -5.9930   -1.2584 H        1 ZINC000095523345    0.1300
@<TRIPOS>BOND
1     1     28    ar
2     1     2     ar
3     1     29    1
4     2     3     ar
5     2     30    1
6     3     4     ar
7     3     31    1
8     4     27    ar
9     4     5     1
10    5     6     1
11    6     7     1
12    6     32    1
13    6     33    1
14    7     8     1
15    7     34    1
16    7     35    1
17    8     9     1
18    8     10    1
19    8     26    1
20    10    11    1
21    10    36    1
22    10    37    1
23    11    12    1
24    11    25    1
25    11    13    1
26    13    14    1
27    13    38    1
28    13    39    1
29    14    15    1
30    14    40    1
31    14    41    1
32    15    16    1
33    15    42    1
34    15    43    1
35    16    17    1
36    16    24    1
37    17    18    1
38    17    44    1
39    17    45    1
40    18    23    ar
41    18    19    ar
42    19    20    ar
43    19    46    1
44    20    21    ar
45    20    47    1
46    21    22    ar
47    22    23    ar
48    22    48    1
49    23    49    1
50    24    25    1
51    24    50    1
52    24    51    1
53    25    52    1
54    25    53    1
55    26    27    1
56    26    54    1
57    26    55    1
58    27    28    ar
59    28    56    1
@<TRIPOS>SUBSTRUCTURE
1   ZINC000095523345 1     RESIDUE    1   A     ZIN   1
