@<TRIPOS>MOLECULE
ZINC000019015192
46    48    1     0     0
SMALL
USER_CHARGES
@<TRIPOS>ATOM
1      C1     -0.0157    1.3058    0.0092 C.2      1 ZINC000019015192   -0.1000
2      C2      0.0021   -0.0041    0.0020 C.2      1 ZINC000019015192   -0.2400
3      C3      1.3172   -0.7397   -0.0145 C.3      1 ZINC000019015192    0.0200
4      N4      1.3676   -1.6787    1.1153 N.4      1 ZINC000019015192   -0.3700
5      H5      0.5608   -2.2815    1.0692 H        1 ZINC000019015192    0.4200
6      C6      1.3124   -0.9025    2.3738 C.3      1 ZINC000019015192   -0.0200
7      C7      0.7625   -1.8133    3.4446 C.3      1 ZINC000019015192   -0.1400
8      C8      1.8765   -2.4719    4.2719 C.3      1 ZINC000019015192   -0.1200
9      C9      3.0898   -2.9378    3.4230 C.3      1 ZINC000019015192    0.1200
10     C10     2.6573   -3.5075    2.1024 C.3      1 ZINC000019015192   -0.1800
11     C11     2.5197   -2.4547    1.0009 C.3      1 ZINC000019015192   -0.0400
12     C12     3.7584   -4.0386    4.2429 C.3      1 ZINC000019015192   -0.0500
13     N13     4.9581   -4.6007    3.6476 N.4      1 ZINC000019015192   -0.5000
14     H14     5.1771   -5.4734    4.1119 H        1 ZINC000019015192    0.4500
15     H15     4.8084   -4.7869    2.6707 H        1 ZINC000019015192    0.4200
16     C16     6.0956   -3.6894    3.8001 C.3      1 ZINC000019015192    0.0400
17     C17     6.0862   -2.6945    2.6556 C.ar     1 ZINC000019015192   -0.1900
18     C18     7.1431   -2.7007    1.7640 C.ar     1 ZINC000019015192   -0.0600
19     C19     7.1845   -1.7803    0.7334 C.ar     1 ZINC000019015192   -0.1100
20     C20     6.1698   -0.8510    0.6028 C.ar     1 ZINC000019015192   -0.0600
21     C21     5.1065   -0.8601    1.4805 C.ar     1 ZINC000019015192   -0.1500
22     C22     5.0412   -1.8082    2.5025 C.ar     1 ZINC000019015192    0.1200
23     O23     3.9595   -1.8218    3.3035 O.3      1 ZINC000019015192   -0.3200
24     H24     0.9122    1.8585    0.0033 H        1 ZINC000019015192    0.1100
25     H25    -0.9582    1.8330    0.0166 H        1 ZINC000019015192    0.1300
26     H26    -0.9258   -0.5567    0.0079 H        1 ZINC000019015192    0.1400
27     H27     1.4134   -1.2911   -0.9498 H        1 ZINC000019015192    0.1400
28     H28     2.1349   -0.0241    0.0711 H        1 ZINC000019015192    0.1300
29     H29     2.3073   -0.5618    2.6462 H        1 ZINC000019015192    0.1400
30     H30     0.6496   -0.0471    2.2450 H        1 ZINC000019015192    0.1400
31     H31     0.1231   -1.2278    4.1078 H        1 ZINC000019015192    0.1200
32     H32     0.1579   -2.5889    2.9736 H        1 ZINC000019015192    0.0900
33     H33     2.2351   -1.7590    5.0171 H        1 ZINC000019015192    0.1100
34     H34     1.4679   -3.3399    4.7929 H        1 ZINC000019015192    0.1100
35     H35     3.3747   -4.2698    1.7781 H        1 ZINC000019015192    0.1000
36     H36     1.6900   -4.0129    2.2329 H        1 ZINC000019015192    0.1200
37     H37     2.4737   -2.9764    0.0325 H        1 ZINC000019015192    0.1400
38     H38     3.3866   -1.8085    0.9752 H        1 ZINC000019015192    0.1400
39     H39     4.0114   -3.6211    5.2176 H        1 ZINC000019015192    0.1500
40     H40     3.0310   -4.8365    4.3893 H        1 ZINC000019015192    0.1500
41     H41     6.0204   -3.1589    4.7489 H        1 ZINC000019015192    0.1500
42     H42     7.0257   -4.2602    3.7761 H        1 ZINC000019015192    0.1500
43     H43     7.9327   -3.4299    1.8748 H        1 ZINC000019015192    0.1500
44     H44     8.0038   -1.7882    0.0304 H        1 ZINC000019015192    0.1500
45     H45     6.2114   -0.1170   -0.1891 H        1 ZINC000019015192    0.1500
46     H46     4.3197   -0.1242    1.3882 H        1 ZINC000019015192    0.1400
@<TRIPOS>BOND
1     1     2     2
2     1     24    1
3     1     25    1
4     2     3     1
5     2     26    1
6     3     4     1
7     3     27    1
8     3     28    1
9     4     5     1
10    4     11    1
11    4     6     1
12    6     7     1
13    6     29    1
14    6     30    1
15    7     8     1
16    7     31    1
17    7     32    1
18    8     9     1
19    8     33    1
20    8     34    1
21    9     23    1
22    9     10    1
23    9     12    1
24    10    11    1
25    10    35    1
26    10    36    1
27    11    37    1
28    11    38    1
29    12    13    1
30    12    39    1
31    12    40    1
32    13    14    1
33    13    15    1
34    13    16    1
35    16    17    1
36    16    41    1
37    16    42    1
38    17    22    ar
39    17    18    ar
40    18    19    ar
41    18    43    1
42    19    20    ar
43    19    44    1
44    20    21    ar
45    20    45    1
46    21    22    ar
47    21    46    1
48    22    23    1
@<TRIPOS>SUBSTRUCTURE
1   ZINC000019015192 1     RESIDUE    1   A     ZIN   1
