@<TRIPOS>MOLECULE
ZINC000620748806
64    67    1     0     0
SMALL
USER_CHARGES
@<TRIPOS>ATOM
1      C1     -0.5573    1.6911    0.0585 C.2      1 ZINC000620748806   -0.1100
2      C2     -0.2997    0.4091   -0.0205 C.2      1 ZINC000620748806   -0.1900
3      C3     -1.4288   -0.5889    0.0001 C.3      1 ZINC000620748806    0.1600
4      N4     -1.7998   -0.9349   -1.3743 N.am     1 ZINC000620748806   -0.7300
5      C5     -2.7935   -1.8164   -1.6024 C.2      1 ZINC000620748806    0.5100
6      O6     -3.3804   -2.3233   -0.6700 O.2      1 ZINC000620748806   -0.4900
7      C7     -3.1752   -2.1722   -3.0162 C.3      1 ZINC000620748806    0.0900
8      H8     -2.3557   -2.7224   -3.4785 H        1 ZINC000620748806    0.1400
9      C9     -3.4229   -0.8830   -3.8079 C.3      1 ZINC000620748806   -0.0600
10     N10    -4.7246   -0.9238   -4.4320 N.4      1 ZINC000620748806   -0.3600
11     H11    -4.7213   -0.1683   -5.1008 H        1 ZINC000620748806    0.4300
12     C12    -4.8670   -2.1405   -5.2312 C.3      1 ZINC000620748806   -0.0500
13     C13    -4.8255   -3.3756   -4.3340 C.3      1 ZINC000620748806    0.0500
14     N14    -4.3418   -3.0033   -2.9911 N.3      1 ZINC000620748806   -0.5500
15     C15    -5.4648   -2.6194   -2.1733 C.3      1 ZINC000620748806    0.0500
16     C16    -6.5118   -1.8961   -3.0248 C.3      1 ZINC000620748806   -0.1800
17     C17    -5.8424   -0.6636   -3.5674 C.3      1 ZINC000620748806   -0.0200
18     C18     1.1255   -0.0678   -0.1319 C.3      1 ZINC000620748806    0.1600
19     N19     1.6335   -0.4038    1.2005 N.am     1 ZINC000620748806   -0.7200
20     C20     2.8950   -0.8554    1.3466 C.2      1 ZINC000620748806    0.5200
21     O21     3.6095   -0.9836    0.3750 O.2      1 ZINC000620748806   -0.5000
22     C22     3.4176   -1.2011    2.7171 C.3      1 ZINC000620748806    0.0600
23     H23     2.6324   -1.7040    3.2816 H        1 ZINC000620748806    0.1400
24     C24     3.8050    0.0748    3.4361 C.3      1 ZINC000620748806   -0.0300
25     N25     5.1786    0.0866    3.9271 N.4      1 ZINC000620748806   -0.3700
26     H26     5.3869    1.0341    4.2048 H        1 ZINC000620748806    0.4300
27     C27     6.1826   -0.3039    2.9554 C.3      1 ZINC000620748806   -0.0500
28     C28     5.7338   -1.4545    2.0706 C.3      1 ZINC000620748806    0.0400
29     N29     4.5667   -2.1076    2.5791 N.3      1 ZINC000620748806   -0.5200
30     C30     4.7500   -2.8425    3.8399 C.3      1 ZINC000620748806    0.0500
31     C31     5.7579   -2.1337    4.7304 C.3      1 ZINC000620748806   -0.1900
32     C32     5.3064   -0.7508    5.1289 C.3      1 ZINC000620748806   -0.0100
33     H33     0.2519    2.4063    0.0437 H        1 ZINC000620748806    0.1100
34     H34    -1.5789    2.0330    0.1338 H        1 ZINC000620748806    0.1100
35     H35    -1.1095   -1.4879    0.5275 H        1 ZINC000620748806    0.0800
36     H36    -2.2885   -0.1545    0.5102 H        1 ZINC000620748806    0.0800
37     H37    -1.3304   -0.5295   -2.1200 H        1 ZINC000620748806    0.4000
38     H38    -3.3727   -0.0291   -3.1324 H        1 ZINC000620748806    0.1300
39     H39    -2.6570   -0.7784   -4.5764 H        1 ZINC000620748806    0.1500
40     H40    -5.8180   -2.1132   -5.7631 H        1 ZINC000620748806    0.1400
41     H41    -4.0539   -2.1935   -5.9552 H        1 ZINC000620748806    0.1400
42     H42    -5.8270   -3.7984   -4.2534 H        1 ZINC000620748806    0.1200
43     H43    -4.1550   -4.1167   -4.7689 H        1 ZINC000620748806    0.1100
44     H44    -5.9111   -3.5100   -1.7309 H        1 ZINC000620748806    0.1000
45     H45    -5.1234   -1.9556   -1.3790 H        1 ZINC000620748806    0.1000
46     H46    -6.8324   -2.5377   -3.8455 H        1 ZINC000620748806    0.1000
47     H47    -7.3681   -1.6217   -2.4086 H        1 ZINC000620748806    0.1200
48     H48    -5.4929   -0.0585   -2.7309 H        1 ZINC000620748806    0.1200
49     H49    -6.5758   -0.0866   -4.1306 H        1 ZINC000620748806    0.1300
50     H50     1.1643   -0.9513   -0.7690 H        1 ZINC000620748806    0.0800
51     H51     1.7395    0.7209   -0.5666 H        1 ZINC000620748806    0.0800
52     H52     1.0621   -0.3012    1.9776 H        1 ZINC000620748806    0.4000
53     H53     3.6739    0.9127    2.7512 H        1 ZINC000620748806    0.1300
54     H54     3.1325    0.2142    4.2825 H        1 ZINC000620748806    0.1400
55     H55     6.4136    0.5547    2.3248 H        1 ZINC000620748806    0.1300
56     H56     7.0875   -0.6009    3.4856 H        1 ZINC000620748806    0.1400
57     H57     5.5058   -1.0695    1.0766 H        1 ZINC000620748806    0.1300
58     H58     6.5450   -2.1782    1.9913 H        1 ZINC000620748806    0.1200
59     H59     3.7943   -2.9078    4.3600 H        1 ZINC000620748806    0.0900
60     H60     5.1087   -3.8482    3.6208 H        1 ZINC000620748806    0.1100
61     H61     5.9097   -2.7242    5.6339 H        1 ZINC000620748806    0.1200
62     H62     6.7058   -2.0524    4.1983 H        1 ZINC000620748806    0.1000
63     H63     6.0337   -0.3126    5.8124 H        1 ZINC000620748806    0.1400
64     H64     4.3344   -0.8115    5.6184 H        1 ZINC000620748806    0.1300
@<TRIPOS>BOND
1     1     2     2
2     1     33    1
3     1     34    1
4     2     3     1
5     2     18    1
6     3     4     1
7     3     35    1
8     3     36    1
9     4     5     am
10    4     37    1
11    5     6     2
12    5     7     1
13    7     8     1
14    7     14    1
15    7     9     1
16    9     10    1
17    9     38    1
18    9     39    1
19    10    11    1
20    10    17    1
21    10    12    1
22    12    13    1
23    12    40    1
24    12    41    1
25    13    14    1
26    13    42    1
27    13    43    1
28    14    15    1
29    15    16    1
30    15    44    1
31    15    45    1
32    16    17    1
33    16    46    1
34    16    47    1
35    17    48    1
36    17    49    1
37    18    19    1
38    18    50    1
39    18    51    1
40    19    20    am
41    19    52    1
42    20    21    2
43    20    22    1
44    22    23    1
45    22    29    1
46    22    24    1
47    24    25    1
48    24    53    1
49    24    54    1
50    25    26    1
51    25    32    1
52    25    27    1
53    27    28    1
54    27    55    1
55    27    56    1
56    28    29    1
57    28    57    1
58    28    58    1
59    29    30    1
60    30    31    1
61    30    59    1
62    30    60    1
63    31    32    1
64    31    61    1
65    31    62    1
66    32    63    1
67    32    64    1
@<TRIPOS>SUBSTRUCTURE
1   ZINC000620748806 1     RESIDUE    1   A     ZIN   1
