@<TRIPOS>MOLECULE
ZINC000104277568
50    51    1     0     0
SMALL
USER_CHARGES
@<TRIPOS>ATOM
1      C1     -0.0178    1.4648    0.0101 C.3      1 ZINC000104277568   -0.0900
2      N2      0.0021   -0.0041    0.0020 N.4      1 ZINC000104277568   -0.3100
3      H3     -0.9525   -0.3179    0.0934 H        1 ZINC000104277568    0.4200
4      C4      0.4460   -0.3983   -1.2070 C.2      1 ZINC000104277568   -0.0900
5      C5     -0.0138   -1.5481   -1.6570 C.2      1 ZINC000104277568   -0.0600
6      C6     -0.9526   -2.3401   -0.8466 C.3      1 ZINC000104277568   -0.1600
7      C7     -1.0077   -2.1873    0.6509 C.3      1 ZINC000104277568   -0.1500
8      C8      0.3668   -1.9684    1.2910 C.3      1 ZINC000104277568   -0.1100
9      H9      1.1158   -2.5553    0.7593 H        1 ZINC000104277568    0.1200
10     C10     0.3243   -2.3984    2.7587 C.3      1 ZINC000104277568   -0.1500
11     C11     0.0766   -3.9060    2.8415 C.3      1 ZINC000104277568   -0.0100
12     N12     0.0358   -4.3189    4.2506 N.4      1 ZINC000104277568   -0.2700
13     C13    -1.0488   -3.6060    4.9386 C.3      1 ZINC000104277568   -0.0500
14     C14    -0.2019   -5.7663    4.3301 C.3      1 ZINC000104277568   -0.0500
15     C15     1.3175   -3.9972    4.8925 C.3      1 ZINC000104277568   -0.0500
16     C16     0.7275   -0.4427    1.1943 C.3      1 ZINC000104277568    0.0200
17     H17     0.4697    0.1192    2.0920 H        1 ZINC000104277568    0.1700
18     C18     2.2663   -0.4969    0.9316 C.3      1 ZINC000104277568   -0.1300
19     C19     2.7110    0.6675    0.1011 C.3      1 ZINC000104277568   -0.1600
20     C20     2.7388    0.2425   -1.3611 C.3      1 ZINC000104277568   -0.1400
21     C21     1.4300    0.4213   -2.0383 C.3      1 ZINC000104277568   -0.0700
22     H22     0.8467    1.8429   -0.5356 H        1 ZINC000104277568    0.1500
23     H23    -0.9318    1.8184   -0.4671 H        1 ZINC000104277568    0.1300
24     H24     0.0168    1.8230    1.0390 H        1 ZINC000104277568    0.1200
25     H25     0.2995   -1.9107   -2.6249 H        1 ZINC000104277568    0.1700
26     H26    -1.9539   -2.1371   -1.2264 H        1 ZINC000104277568    0.1100
27     H27    -0.7478   -3.3904   -1.0541 H        1 ZINC000104277568    0.1100
28     H28    -1.6450   -1.3365    0.8921 H        1 ZINC000104277568    0.0800
29     H29    -1.4528   -3.0860    1.0778 H        1 ZINC000104277568    0.1100
30     H30     1.2753   -2.1598    3.2349 H        1 ZINC000104277568    0.1000
31     H31    -0.4805   -1.8694    3.2691 H        1 ZINC000104277568    0.1000
32     H32    -0.8743   -4.1446    2.3652 H        1 ZINC000104277568    0.1300
33     H33     0.8815   -4.4350    2.3310 H        1 ZINC000104277568    0.1300
34     H34    -1.9998   -3.8446    4.4623 H        1 ZINC000104277568    0.1200
35     H35    -1.0791   -3.9123    5.9842 H        1 ZINC000104277568    0.1300
36     H36    -0.8724   -2.5320    4.8796 H        1 ZINC000104277568    0.1200
37     H37     0.6029   -6.2953    3.8197 H        1 ZINC000104277568    0.1200
38     H38    -0.2322   -6.0727    5.3757 H        1 ZINC000104277568    0.1300
39     H39    -1.1529   -6.0050    3.8539 H        1 ZINC000104277568    0.1200
40     H40     1.4939   -2.9232    4.8335 H        1 ZINC000104277568    0.1200
41     H41     1.2872   -4.3036    5.9381 H        1 ZINC000104277568    0.1300
42     H42     2.1223   -4.5262    4.3820 H        1 ZINC000104277568    0.1200
43     H43     2.7931   -0.4780    1.8857 H        1 ZINC000104277568    0.1000
44     H44     2.5077   -1.4224    0.4088 H        1 ZINC000104277568    0.0900
45     H45     2.0129    1.4949    0.2282 H        1 ZINC000104277568    0.0800
46     H46     3.7091    0.9774    0.4108 H        1 ZINC000104277568    0.1000
47     H47     3.4892    0.8348   -1.8848 H        1 ZINC000104277568    0.0900
48     H48     3.0232   -0.8083   -1.4161 H        1 ZINC000104277568    0.0800
49     H49     1.4748    0.0383   -3.0578 H        1 ZINC000104277568    0.1200
50     H50     1.1436    1.4730   -2.0388 H        1 ZINC000104277568    0.1000
@<TRIPOS>BOND
1     1     2     1
2     1     22    1
3     1     23    1
4     1     24    1
5     2     3     1
6     2     16    1
7     2     4     1
8     4     21    1
9     4     5     2
10    5     6     1
11    5     25    1
12    6     7     1
13    6     26    1
14    6     27    1
15    7     8     1
16    7     28    1
17    7     29    1
18    8     9     1
19    8     10    1
20    8     16    1
21    10    11    1
22    10    30    1
23    10    31    1
24    11    12    1
25    11    32    1
26    11    33    1
27    12    13    1
28    12    14    1
29    12    15    1
30    13    34    1
31    13    35    1
32    13    36    1
33    14    37    1
34    14    38    1
35    14    39    1
36    15    40    1
37    15    41    1
38    15    42    1
39    16    17    1
40    16    18    1
41    18    19    1
42    18    43    1
43    18    44    1
44    19    20    1
45    19    45    1
46    19    46    1
47    20    21    1
48    20    47    1
49    20    48    1
50    21    49    1
51    21    50    1
@<TRIPOS>SUBSTRUCTURE
1   ZINC000104277568 1     RESIDUE    1   A     ZIN   1
