@<TRIPOS>MOLECULE
UNL1
 70 74 0 0 0
SMALL
GASTEIGER

@<TRIPOS>ATOM
      1 C1         -26.6020   10.1990  -63.3530 C.ar    1  UNL1       -0.3868
      2 C2         -27.1860    9.1210  -62.6980 C.2     1  UNL1       -0.5724
      3 C3         -26.4660    8.0450  -62.2540 C.2     1  UNL1       -0.6932
      4 C4         -25.1250    7.9760  -62.5960 C.2     1  UNL1       -0.5724
      5 C5         -24.5370    8.9430  -63.3990 C.ar    1  UNL1       -0.3868
      6 C6         -25.2300   10.1360  -63.5130 C.2     1  UNL1       -0.4080
      7 C7         -27.4250   11.1400  -64.1610 C.3     1  UNL1       -0.0262
      8 N8         -26.6300   12.2930  -64.4810 N.am    1  UNL1       -0.3404
      9 O9         -28.4561   13.5852  -65.2890 O.2     1  UNL1       -0.3108
     10 C10        -27.1870   13.3260  -65.3150 C.2     1  UNL1        0.0959
     11 H11        -25.7140   12.3760  -64.1320 H       1  UNL1        0.1464
     12 C12        -26.2550   13.6960  -66.5890 C.2     1  UNL1       -0.1127
     13 C13        -27.2460   14.9200  -67.0410 C.3     1  UNL1       -0.1815
     14 N14        -25.3310   14.6000  -65.7000 N.3     1  UNL1       -0.4261
     15 N15        -26.5030   16.0860  -67.2590 N.4     1  UNL1        0.3649
     16 C16        -26.0760   15.5630  -65.0270 C.3     1  UNL1       -0.0422
     17 C17        -26.2770   16.7370  -65.9820 C.3     1  UNL1       -0.0829
     18 C18        -24.1720   14.9180  -66.3970 C.3     1  UNL1       -0.0287
     19 C19        -25.3910   16.0510  -68.1270 C.3     1  UNL1       -0.0927
     20 C20        -24.4110   14.9430  -67.8900 C.3     1  UNL1       -0.0575
     21 C21        -23.2840    8.6950  -64.1660 C.3     1  UNL1       -0.0262
     22 N22        -23.3380    9.5580  -65.3300 N.am    1  UNL1       -0.3404
     23 C23        -23.7010    9.0520  -66.5490 C.2     1  UNL1        0.0959
     24 H24        -23.1140   10.5130  -65.2430 H       1  UNL1        0.1464
     25 O25        -24.2050    7.8900  -66.6060 O.2     1  UNL1       -0.3108
     26 C26        -24.2370    9.9750  -67.7530 C.2     1  UNL1       -0.1127
     27 C27        -23.2210   11.2340  -67.4590 C.3     1  UNL1       -0.1815
     28 N28        -23.2390    9.3030  -68.7700 N.3     1  UNL1       -0.4261
     29 N29        -22.8910   11.8260  -68.7090 N.4     1  UNL1        0.3649
     30 C30        -23.4140    9.9360  -70.0270 C.3     1  UNL1       -0.0829
     31 C31        -23.7320   11.3920  -69.7930 C.3     1  UNL1       -0.0287
     32 C32        -21.9360    9.3540  -68.2060 C.3     1  UNL1       -0.0575
     33 C33        -20.9770   10.2700  -68.8970 C.3     1  UNL1       -0.0422
     34 C34        -21.4770   11.6990  -69.0050 C.3     1  UNL1       -0.0927
     35 H35        -27.7399   10.6587  -65.0633 H       1  UNL1        0.0458
     36 H36        -28.2890   11.4373  -63.6043 H       1  UNL1        0.0458
     37 H37        -27.7530   14.6497  -67.9436 H       1  UNL1       -0.0244
     38 H38        -27.9580   15.0993  -66.2627 H       1  UNL1       -0.0244
     39 H39        -27.0242   15.1578  -64.7414 H       1  UNL1        0.0385
     40 H40        -25.5683   15.8808  -64.1403 H       1  UNL1        0.0385
     41 H41        -27.1237   17.3250  -65.6952 H       1  UNL1        0.0069
     42 H42        -25.4494   17.4151  -65.9957 H       1  UNL1        0.0069
     43 H43        -23.8316   15.8827  -66.0834 H       1  UNL1        0.0403
     44 H44        -23.4383   14.1679  -66.1875 H       1  UNL1        0.0403
     45 H45        -24.8675   16.9788  -68.0268 H       1  UNL1        0.0058
     46 H46        -25.7916   15.8793  -69.1042 H       1  UNL1        0.0058
     47 H47        -23.4965   15.1365  -68.4107 H       1  UNL1        0.0259
     48 H48        -24.7831   14.0049  -68.2454 H       1  UNL1        0.0259
     49 H49        -22.4302    8.9345  -63.5672 H       1  UNL1        0.0458
     50 H50        -23.2002    7.6666  -64.4495 H       1  UNL1        0.0458
     51 H51        -23.7046   11.9534  -66.8317 H       1  UNL1       -0.0244
     52 H52        -22.3371   10.8932  -66.9614 H       1  UNL1       -0.0244
     53 H53        -24.0833    9.1876  -69.6571 H       1  UNL1        0.0385
     54 H54        -23.7856    9.7684  -71.0163 H       1  UNL1        0.0385
     55 H55        -24.3153   12.1641  -69.3364 H       1  UNL1        0.0069
     56 H56        -23.8880   11.9307  -70.7043 H       1  UNL1        0.0069
     57 H57        -21.4975    8.5017  -68.6815 H       1  UNL1        0.0403
     58 H58        -21.9512    8.7918  -67.2957 H       1  UNL1        0.0403
     59 H59        -20.6790   11.1563  -68.3769 H       1  UNL1        0.0259
     60 H60        -19.9314   10.0579  -68.9786 H       1  UNL1        0.0259
     61 H61        -21.2006   11.8001  -70.0337 H       1  UNL1        0.0058
     62 H62        -20.7075   12.3399  -68.6282 H       1  UNL1        0.0058
     63 H63        -28.1177    9.2262  -62.0005 H       1  UNL1       -0.2180
     64 H64        -24.7659   10.8982  -64.1412 H       1  UNL1       -0.1840
     65 H65        -24.6987    6.7268  -62.5013 H       1  UNL1       -0.2180
     66 H66        -26.1535   12.7322  -67.1236 H       1  UNL1       -0.1546
     67 H67        -24.4681    8.9285  -68.0522 H       1  UNL1       -0.1546
     68 H68        -22.6751   12.8910  -68.5479 H       1  UNL1       -0.0853
     69 H69        -27.2253   15.9492  -68.2101 H       1  UNL1       -0.0853
     70 H70        -27.1871    7.5650  -61.4692 H       1  UNL1       -0.2465
@<TRIPOS>BOND
     1     1     7    1
     2     1     6   ar
     3     1     2   ar
     4     2     3   ar
     5     2    63    1
     6     3     4   ar
     7     3    70    1
     8     4     5   ar
     9     4    65    1
    10     5    21    1
    11     5     6   ar
    12     6    64    1
    13     7     8    1
    14     7    35    1
    15     7    36    1
    16     8    10   am
    17     8    11    1
    18     9    10    2
    19    10    12    1
    20    12    13    1
    21    12    14    1
    22    12    66    1
    23    13    15    1
    24    13    37    1
    25    13    38    1
    26    14    16    1
    27    14    18    1
    28    15    19    1
    29    15    17    1
    30    15    69    1
    31    16    17    1
    32    16    39    1
    33    16    40    1
    34    17    41    1
    35    17    42    1
    36    18    20    1
    37    18    43    1
    38    18    44    1
    39    19    20    1
    40    19    45    1
    41    19    46    1
    42    20    47    1
    43    20    48    1
    44    21    22    1
    45    21    49    1
    46    21    50    1
    47    22    23   am
    48    22    24    1
    49    23    26    1
    50    23    25    2
    51    26    28    1
    52    26    27    1
    53    26    67    1
    54    27    29    1
    55    27    51    1
    56    27    52    1
    57    28    33    1
    58    28    31    1
    59    29    30    1
    60    29    34    1
    61    29    68    1
    62    30    33    1
    63    30    55    1
    64    30    56    1
    65    31    32    1
    66    31    57    1
    67    31    58    1
    68    32    34    1
    69    32    59    1
    70    32    60    1
    71    33    53    1
    72    33    54    1
    73    34    61    1
    74    34    62    1
