{\rtf1\ansi\ansicpg1252\cocoartf2707
\cocoatextscaling0\cocoaplatform0{\fonttbl\f0\fswiss\fcharset0 Helvetica;}
{\colortbl;\red255\green255\blue255;}
{\*\expandedcolortbl;;}
\paperw11900\paperh16840\margl1440\margr1440\vieww11520\viewh8400\viewkind0
\pard\tx720\tx1440\tx2160\tx2880\tx3600\tx4320\tx5040\tx5760\tx6480\tx7200\tx7920\tx8640\pardirnatural\partightenfactor0

\f0\fs24 \cf0 MODEL 1\
REMARK VINA RESULT:   -12.283      0.000      0.000\
REMARK INTER + INTRA:           5.707\
REMARK INTER:                  -2.347\
REMARK INTRA:                   8.054\
REMARK UNBOUND:                25.888\
REMARK SMILES CN1C2=CCC[C@H](CC[N+](C)(C)C)[C@H]1CCCC2\
REMARK SMILES IDX 14 1 2 2 1 3 3 4 4 5 5 7 7 9 6 10 8 12 9 13 10 14 11 15\
REMARK SMILES IDX 12 16 13 17 15 18 16 19 17 20 18 21\
REMARK H PARENT\
REMARK Flexibility Score: 180.00\
ROOT\
ATOM      1  C   UNL     1     -25.925   5.475 -63.452  1.00  0.00     0.085 C \
ENDROOT\
BRANCH   1   2\
ATOM      2  N   UNL     1     -26.108   6.593 -64.587  1.00  0.00    -0.375 N \
ATOM      3  C   UNL     1     -25.421   6.490 -65.704  1.00  0.00     0.143 C \
BRANCH   2   4\
ATOM      4  C   UNL     1     -27.138   7.388 -64.024  1.00  0.00     0.009 CG0\
ATOM      5  C   UNL     1     -28.267   6.705 -63.691  1.00  0.00    -0.006 C \
ATOM      6  G   UNL     1     -26.748   8.121 -62.753  1.00  0.00     0.000 G0\
BRANCH   5   7\
ATOM      7  C   UNL     1     -28.356   5.187 -63.528  1.00  0.00     0.029 CG1\
ATOM      8  G   UNL     1     -27.705   4.396 -64.560  1.00  0.00     0.000 G1\
ENDBRANCH   5   7\
ENDBRANCH   2   4\
ENDBRANCH   1   2\
BRANCH   1   9\
ATOM      9  C   UNL     1     -26.094   4.289 -64.666  1.00  0.00     0.017 C \
BRANCH   9  10\
ATOM     10  C   UNL     1     -27.719   4.347 -64.560  1.00  0.00     0.010 CG1\
ATOM     11  G   UNL     1     -28.314   5.184 -63.530  1.00  0.00     0.000 G1\
ENDBRANCH   9  10\
BRANCH   9  12\
ATOM     12  C   UNL     1     -25.942   3.061 -63.600  1.00  0.00     0.067 C \
BRANCH  12  13\
ATOM     13  C   UNL     1     -25.996   1.903 -64.594  1.00  0.00     0.263 C \
BRANCH  13  14\
ATOM     14  N   UNL     1     -25.145   0.806 -64.230  1.00  0.00    -0.331 N \
ATOM     15  C   UNL     1     -23.877   1.401 -63.845  1.00  0.00     0.334 C \
ATOM     16  C   UNL     1     -25.689  -0.031 -63.203  1.00  0.00     0.334 C \
ATOM     17  C   UNL     1     -24.935   0.015 -65.426  1.00  0.00     0.334 C \
ENDBRANCH  13  14\
ENDBRANCH  12  13\
ENDBRANCH   9  12\
ENDBRANCH   1   9\
BRANCH   1  18\
ATOM     18  C   UNL     1     -24.311   5.718 -63.479  1.00  0.00     0.025 C \
BRANCH  18  19\
ATOM     19  C   UNL     1     -24.415   6.987 -62.615  1.00  0.00     0.003 C \
BRANCH  19  20\
ATOM     20  C   UNL     1     -25.707   7.288 -61.937  1.00  0.00     0.006 C \
BRANCH  20  21\
ATOM     21  C   UNL     1     -26.703   8.128 -62.757  1.00  0.00     0.053 CG0\
ATOM     22  G   UNL     1     -27.133   7.378 -64.005  1.00  0.00     0.000 G0\
ENDBRANCH  20  21\
ENDBRANCH  19  20\
ENDBRANCH  18  19\
ENDBRANCH   1  18\
TORSDOF 3\
ENDMDL}