@<TRIPOS>MOLECULE
*****
 64 67 0 0 0
SMALL
GASTEIGER

@<TRIPOS>ATOM
      1 C         -17.8330   13.4810  -71.1948 C.2     1  UNL1       -0.0965
      2 C         -18.5800   14.3500  -71.6260 C.2     1  UNL1       -0.0428
      3 C         -18.2500   15.7660  -71.2990 C.3     1  UNL1        0.0341
      4 N         -19.4500   16.5840  -71.4310 N.am    1  UNL1       -0.3100
      5 C         -19.2400   17.9710  -71.7300 C.2     1  UNL1        0.2358
      6 H         -20.3520   16.2050  -71.3220 H       1  UNL1        0.1491
      7 O         -18.4450   18.1820  -72.6990 O.2     1  UNL1       -0.2739
      8 C         -20.6890   18.6540  -71.9670 C.3     1  UNL1        0.1277
      9 C         -20.0170   20.1510  -72.1230 C.3     1  UNL1       -0.0072
     10 N         -20.9580   18.7590  -70.4190 N.3     1  UNL1       -0.2821
     11 N         -20.8150   21.0430  -71.3800 N.4     1  UNL1        0.2376
     12 C         -19.9660   19.5500  -69.8400 C.3     1  UNL1        0.0400
     13 C         -20.4180   21.0010  -69.9880 C.3     1  UNL1       -0.0187
     14 C         -22.3160   19.0210  -70.2070 C.3     1  UNL1        0.0048
     15 C         -23.0120   19.9010  -71.1780 C.3     1  UNL1        0.0003
     16 C         -22.1890   21.0880  -71.6280 C.3     1  UNL1       -0.0306
     17 C         -20.0260   14.0310  -71.6460 C.3     1  UNL1        0.0317
     18 N         -20.1430   12.6800  -71.1500 N.am    1  UNL1       -0.3356
     19 C         -21.3980   12.1470  -70.9220 C.2     1  UNL1        0.0960
     20 H         -19.3360   12.1430  -70.9760 H       1  UNL1        0.1465
     21 O         -22.4380   12.5620  -71.5230 O.2     1  UNL1       -0.3108
     22 C         -21.5270   10.6060  -70.4430 C.2     1  UNL1       -0.1127
     23 C         -23.1550   10.6210  -70.1750 C.3     1  UNL1       -0.1815
     24 N         -21.1680   10.9790  -68.9470 N.3     1  UNL1       -0.4261
     25 N         -23.4020    9.9410  -68.9770 N.4     1  UNL1        0.3649
     26 C         -21.1790    9.7740  -68.2050 C.3     1  UNL1       -0.0422
     27 C         -22.4560    9.0220  -68.4970 C.3     1  UNL1       -0.0829
     28 C         -22.0250   12.0280  -68.5820 C.3     1  UNL1       -0.0287
     29 C         -22.9680   11.7780  -67.4370 C.3     1  UNL1       -0.0575
     30 C         -24.0080   10.7960  -67.9880 C.3     1  UNL1       -0.0927
     31 H         -18.0254   12.4877  -71.3981 H       1  UNL1        0.0535
     32 H         -17.0110   13.7419  -70.6280 H       1  UNL1        0.0535
     33 H         -17.4987   16.1225  -71.9724 H       1  UNL1        0.0509
     34 H         -17.8843   15.8259  -70.2952 H       1  UNL1        0.0509
     35 H         -20.0031   20.4415  -73.1527 H       1  UNL1        0.0835
     36 H         -19.0083   20.1546  -71.7659 H       1  UNL1        0.0835
     37 H         -19.0344   19.4009  -70.3447 H       1  UNL1        0.0479
     38 H         -19.8230   19.2950  -68.8107 H       1  UNL1        0.0479
     39 H         -21.2410   21.2213  -69.3407 H       1  UNL1        0.0827
     40 H         -19.6683   21.7187  -69.7278 H       1  UNL1        0.0827
     41 H         -22.4062   19.4759  -69.2427 H       1  UNL1        0.0429
     42 H         -22.7935   18.0697  -70.3160 H       1  UNL1        0.0429
     43 H         -23.2636   19.3191  -72.0400 H       1  UNL1        0.0329
     44 H         -23.8749   20.2918  -70.6804 H       1  UNL1        0.0329
     45 H         -22.3222   21.1900  -72.6848 H       1  UNL1        0.0815
     46 H         -22.5479   21.9097  -71.0441 H       1  UNL1        0.0815
     47 H         -20.4069   14.0949  -72.6438 H       1  UNL1        0.0508
     48 H         -20.5870   14.7180  -71.0474 H       1  UNL1        0.0508
     49 H         -23.6603   10.1316  -70.9812 H       1  UNL1       -0.0244
     50 H         -23.5122   11.6276  -70.1117 H       1  UNL1       -0.0244
     51 H         -21.1261    9.9969  -67.1598 H       1  UNL1        0.0385
     52 H         -20.3374    9.1740  -68.4817 H       1  UNL1        0.0385
     53 H         -22.2734    8.2699  -69.2359 H       1  UNL1        0.0069
     54 H         -22.8178    8.5463  -67.6095 H       1  UNL1        0.0069
     55 H         -22.6169   12.2732  -69.4390 H       1  UNL1        0.0403
     56 H         -21.3768   12.8078  -68.2405 H       1  UNL1        0.0403
     57 H         -23.4368   12.6895  -67.1298 H       1  UNL1        0.0259
     58 H         -22.4631   11.3889  -66.5776 H       1  UNL1        0.0259
     59 H         -24.8101   11.3439  -68.4367 H       1  UNL1        0.0058
     60 H         -24.3834   10.1950  -67.1863 H       1  UNL1        0.0058
     61 H         -21.4777   18.0399  -72.2933 H       1  UNL1        0.0613
     62 H         -20.6113   22.0774  -71.3309 H       1  UNL1        0.2034
     63 H         -21.1101    9.8648  -71.1131 H       1  UNL1       -0.1546
     64 H         -23.6935    9.2555  -69.7275 H       1  UNL1       -0.0853
@<TRIPOS>BOND
     1     1     2    2
     2     1    31    1
     3     1    32    1
     4     2    17    1
     5     2     3    1
     6     3     4    1
     7     3    33    1
     8     3    34    1
     9     4     5   am
    10     4     6    1
    11     5     7    2
    12     5     8    1
    13     8     9    1
    14     8    10    1
    15     8    61    1
    16     9    11    1
    17     9    35    1
    18     9    36    1
    19    10    14    1
    20    10    12    1
    21    11    13    1
    22    11    16    1
    23    11    62    1
    24    12    13    1
    25    12    37    1
    26    12    38    1
    27    13    39    1
    28    13    40    1
    29    14    15    1
    30    14    41    1
    31    14    42    1
    32    15    16    1
    33    15    43    1
    34    15    44    1
    35    16    45    1
    36    16    46    1
    37    17    18    1
    38    17    47    1
    39    17    48    1
    40    18    20    1
    41    18    19   am
    42    19    21    2
    43    19    22    1
    44    22    23    1
    45    22    24    1
    46    22    63    1
    47    23    25    1
    48    23    49    1
    49    23    50    1
    50    24    28    1
    51    24    26    1
    52    25    27    1
    53    25    30    1
    54    25    64    1
    55    26    27    1
    56    26    51    1
    57    26    52    1
    58    27    53    1
    59    27    54    1
    60    28    29    1
    61    28    55    1
    62    28    56    1
    63    29    30    1
    64    29    57    1
    65    29    58    1
    66    30    59    1
    67    30    60    1
