{\rtf1\ansi\ansicpg1252\cocoartf2707
\cocoatextscaling0\cocoaplatform0{\fonttbl\f0\fswiss\fcharset0 Helvetica;}
{\colortbl;\red255\green255\blue255;}
{\*\expandedcolortbl;;}
\paperw11900\paperh16840\margl1440\margr1440\vieww11520\viewh8400\viewkind0
\pard\tx720\tx1440\tx2160\tx2880\tx3600\tx4320\tx5040\tx5760\tx6480\tx7200\tx7920\tx8640\pardirnatural\partightenfactor0

\f0\fs24 \cf0 MODEL 1\
REMARK VINA RESULT:   -11.948      0.000      0.000\
REMARK INTER + INTRA:          13.357\
REMARK INTER:                  -2.219\
REMARK INTRA:                  15.576\
REMARK UNBOUND:                32.988\
REMARK SMILES CN1C2=CCC[C@H](CC[N+](C)(C)C)[C@@H]1CCCC2\
REMARK SMILES IDX 14 1 2 2 1 3 3 4 4 5 5 7 7 9 6 10 8 12 9 13 10 14 11 15\
REMARK SMILES IDX 12 16 13 17 15 18 16 19 17 20 18 21\
REMARK H PARENT\
REMARK Flexibility Score: 180.00\
ROOT\
ATOM      1  C   UNL     1     -14.284   4.047 -76.189  1.00  0.00     0.085 C \
ENDROOT\
BRANCH   1   2\
ATOM      2  N   UNL     1     -14.710   3.755 -74.680  1.00  0.00    -0.375 N \
ATOM      3  C   UNL     1     -15.055   3.019 -74.394  1.00  0.00     0.143 C \
BRANCH   2   4\
ATOM      4  C   UNL     1     -14.024   4.911 -74.131  1.00  0.00     0.009 CG0\
ATOM      5  C   UNL     1     -14.447   6.139 -74.524  1.00  0.00    -0.006 C \
ATOM      6  G   UNL     1     -12.512   4.968 -74.201  1.00  0.00     0.000 G0\
BRANCH   5   7\
ATOM      7  C   UNL     1     -15.387   6.291 -75.723  1.00  0.00     0.029 CG1\
ATOM      8  G   UNL     1     -16.351   5.097 -75.776  1.00  0.00     0.000 G1\
ENDBRANCH   5   7\
ENDBRANCH   2   4\
ENDBRANCH   1   2\
BRANCH   1   9\
ATOM      9  C   UNL     1     -15.852   3.962 -76.837  1.00  0.00     0.017 C \
BRANCH   9  10\
ATOM     10  C   UNL     1     -16.373   5.105 -75.798  1.00  0.00     0.010 CG1\
ATOM     11  G   UNL     1     -15.387   6.281 -75.768  1.00  0.00     0.000 G1\
ENDBRANCH   9  10\
BRANCH   9  12\
ATOM     12  C   UNL     1     -16.362   2.684 -75.984  1.00  0.00     0.067 C \
BRANCH  12  13\
ATOM     13  C   UNL     1     -17.514   2.040 -76.588  1.00  0.00     0.263 C \
BRANCH  13  14\
ATOM     14  N   UNL     1     -18.307   1.186 -75.763  1.00  0.00    -0.331 N \
ATOM     15  C   UNL     1     -18.784   2.051 -74.685  1.00  0.00     0.334 C \
ATOM     16  C   UNL     1     -19.429   0.638 -76.475  1.00  0.00     0.334 C \
ATOM     17  C   UNL     1     -17.580   0.111 -75.145  1.00  0.00     0.334 C \
ENDBRANCH  13  14\
ENDBRANCH  12  13\
ENDBRANCH   9  12\
ENDBRANCH   1   9\
BRANCH   1  18\
ATOM     18  C   UNL     1     -13.772   2.525 -76.364  1.00  0.00     0.025 C \
BRANCH  18  19\
ATOM     19  C   UNL     1     -12.456   2.805 -75.618  1.00  0.00     0.003 C \
BRANCH  19  20\
ATOM     20  C   UNL     1     -12.026   4.254 -75.521  1.00  0.00     0.006 C \
BRANCH  20  21\
ATOM     21  C   UNL     1     -12.494   4.966 -74.238  1.00  0.00     0.053 CG0\
ATOM     22  G   UNL     1     -14.003   4.899 -74.118  1.00  0.00     0.000 G0\
ENDBRANCH  20  21\
ENDBRANCH  19  20\
ENDBRANCH  18  19\
ENDBRANCH   1  18\
TORSDOF 3\
ENDMDL}