@<TRIPOS>MOLECULE
UNL1
 70 74 0 0 0
SMALL
GASTEIGER

@<TRIPOS>ATOM
      1 C         -26.6020   10.1990  -63.3530 C.ar    1  UNL1       -0.3868
      2 C         -27.1860    9.1210  -62.6980 C.2     1  UNL1       -0.5724
      3 C         -26.4660    8.0450  -62.2540 C.2     1  UNL1       -0.6932
      4 C         -25.1250    7.9760  -62.5960 C.2     1  UNL1       -0.5724
      5 C         -24.5370    8.9430  -63.3990 C.ar    1  UNL1       -0.3868
      6 C         -25.2300   10.1360  -63.5130 C.2     1  UNL1       -0.4080
      7 C         -27.4250   11.1400  -64.1610 C.3     1  UNL1       -0.0262
      8 N         -26.6300   12.2930  -64.4810 N.am    1  UNL1       -0.3404
      9 O         -28.4561   13.5852  -65.2890 O.2     1  UNL1       -0.3108
     10 C         -27.1870   13.3260  -65.3150 C.2     1  UNL1        0.0959
     11 H         -25.7140   12.3760  -64.1320 H       1  UNL1        0.1464
     12 C         -26.2550   13.6960  -66.5890 C.2     1  UNL1       -0.1127
     13 C         -27.2460   14.9200  -67.0410 C.3     1  UNL1       -0.1815
     14 N         -25.3310   14.6000  -65.7000 N.3     1  UNL1       -0.4261
     15 N         -26.5030   16.0860  -67.2590 N.4     1  UNL1        0.3649
     16 C         -26.0760   15.5630  -65.0270 C.3     1  UNL1       -0.0422
     17 C         -26.2770   16.7370  -65.9820 C.3     1  UNL1       -0.0829
     18 C         -24.1720   14.9180  -66.3970 C.3     1  UNL1       -0.0287
     19 C         -25.3910   16.0510  -68.1270 C.3     1  UNL1       -0.0927
     20 C         -24.4110   14.9430  -67.8900 C.3     1  UNL1       -0.0575
     21 C         -23.2840    8.6950  -64.1660 C.3     1  UNL1       -0.0262
     22 N         -23.3380    9.5580  -65.3300 N.am    1  UNL1       -0.3404
     23 C         -23.7010    9.0520  -66.5490 C.2     1  UNL1        0.0959
     24 H         -23.1140   10.5130  -65.2430 H       1  UNL1        0.1464
     25 O         -24.2050    7.8900  -66.6060 O.2     1  UNL1       -0.3108
     26 C         -24.2370    9.9750  -67.7530 C.2     1  UNL1       -0.1127
     27 C         -23.2210   11.2340  -67.4590 C.3     1  UNL1       -0.1815
     28 N         -23.2390    9.3030  -68.7700 N.3     1  UNL1       -0.4261
     29 N         -22.8910   11.8260  -68.7090 N.4     1  UNL1        0.3649
     30 C         -23.4140    9.9360  -70.0270 C.3     1  UNL1       -0.0829
     31 C         -23.7320   11.3920  -69.7930 C.3     1  UNL1       -0.0287
     32 C         -21.9360    9.3540  -68.2060 C.3     1  UNL1       -0.0575
     33 C         -20.9770   10.2700  -68.8970 C.3     1  UNL1       -0.0422
     34 C         -21.4770   11.6990  -69.0050 C.3     1  UNL1       -0.0927
     35 H         -27.7399   10.6587  -65.0633 H       1  UNL1        0.0458
     36 H         -28.2890   11.4373  -63.6043 H       1  UNL1        0.0458
     37 H         -27.7530   14.6497  -67.9436 H       1  UNL1       -0.0244
     38 H         -27.9580   15.0993  -66.2627 H       1  UNL1       -0.0244
     39 H         -27.0242   15.1578  -64.7414 H       1  UNL1        0.0385
     40 H         -25.5683   15.8808  -64.1403 H       1  UNL1        0.0385
     41 H         -27.1237   17.3250  -65.6952 H       1  UNL1        0.0069
     42 H         -25.4494   17.4151  -65.9957 H       1  UNL1        0.0069
     43 H         -23.8316   15.8827  -66.0834 H       1  UNL1        0.0403
     44 H         -23.4383   14.1679  -66.1875 H       1  UNL1        0.0403
     45 H         -24.8675   16.9788  -68.0268 H       1  UNL1        0.0058
     46 H         -25.7916   15.8793  -69.1042 H       1  UNL1        0.0058
     47 H         -23.4965   15.1365  -68.4107 H       1  UNL1        0.0259
     48 H         -24.7831   14.0049  -68.2454 H       1  UNL1        0.0259
     49 H         -22.4302    8.9345  -63.5672 H       1  UNL1        0.0458
     50 H         -23.2002    7.6666  -64.4495 H       1  UNL1        0.0458
     51 H         -23.7046   11.9534  -66.8317 H       1  UNL1       -0.0244
     52 H         -22.3371   10.8932  -66.9614 H       1  UNL1       -0.0244
     53 H         -24.0833    9.1876  -69.6571 H       1  UNL1        0.0385
     54 H         -23.7856    9.7684  -71.0163 H       1  UNL1        0.0385
     55 H         -24.3153   12.1641  -69.3364 H       1  UNL1        0.0069
     56 H         -23.8880   11.9307  -70.7043 H       1  UNL1        0.0069
     57 H         -21.4975    8.5017  -68.6815 H       1  UNL1        0.0403
     58 H         -21.9512    8.7918  -67.2957 H       1  UNL1        0.0403
     59 H         -20.6790   11.1563  -68.3769 H       1  UNL1        0.0259
     60 H         -19.9314   10.0579  -68.9786 H       1  UNL1        0.0259
     61 H         -21.2006   11.8001  -70.0337 H       1  UNL1        0.0058
     62 H         -20.7075   12.3399  -68.6282 H       1  UNL1        0.0058
     63 H         -28.1177    9.2262  -62.0005 H       1  UNL1       -0.2180
     64 H         -24.7659   10.8982  -64.1412 H       1  UNL1       -0.1840
     65 H         -24.6987    6.7268  -62.5013 H       1  UNL1       -0.2180
     66 H         -26.1535   12.7322  -67.1236 H       1  UNL1       -0.1546
     67 H         -24.4681    8.9285  -68.0522 H       1  UNL1       -0.1546
     68 H         -22.6751   12.8910  -68.5479 H       1  UNL1       -0.0853
     69 H         -27.2253   15.9492  -68.2101 H       1  UNL1       -0.0853
     70 H         -27.1871    7.5650  -61.4692 H       1  UNL1       -0.2465
@<TRIPOS>BOND
     1    33    30    1
     2    33    28    1
     3    30    29    1
     4    28    31    1
     5    28    26    1
     6    29    27    1
     7    19    15    1
     8    26    27    1
     9    26    23    1
    10    15    13    1
    11    15    17    1
    12    13    12    1
    13    25    23    2
    14    12    14    1
    15    12    10    1
    16    23    22   am
    17    17    16    1
    18    14    16    1
    19    22    24    1
    20    22    21    1
    21    10     9    2
    22    10     8   am
    23     8     7    1
    24     8    11    1
    25    21     5    1
    26     7     1    1
    27     6     5   ar
    28     6     1   ar
    29     5     4   ar
    30     1     2   ar
    31     2     3   ar
    32     4     3   ar
    33    31    32    1
    34    32    34    1
    35    34    29    1
    36    19    20    1
    37    20    18    1
    38    18    14    1
    39     7    35    1
    40     7    36    1
    41    13    37    1
    42    13    38    1
    43    16    39    1
    44    16    40    1
    45    17    41    1
    46    17    42    1
    47    18    43    1
    48    18    44    1
    49    19    45    1
    50    19    46    1
    51    20    47    1
    52    20    48    1
    53    21    49    1
    54    21    50    1
    55    27    51    1
    56    27    52    1
    57    33    53    1
    58    33    54    1
    59    30    55    1
    60    30    56    1
    61    31    57    1
    62    31    58    1
    63    32    59    1
    64    32    60    1
    65    34    61    1
    66    34    62    1
    67     2    63    1
    68     6    64    1
    69     4    65    1
    70    12    66    1
    71    26    67    1
    72    29    68    1
    73    15    69    1
    74     3    70    1
