@<TRIPOS>MOLECULE
*****
 50 51 0 0 0
SMALL
GASTEIGER

@<TRIPOS>ATOM
      1 C         -14.2840    4.0470  -76.1890 C.2     1  UNL1       -0.3127
      2 N         -14.7100    3.7550  -74.6800 N.pl3   1  UNL1       -0.6889
      3 C         -14.0240    4.9110  -74.1310 C.2     1  UNL1       -0.4993
      4 C         -14.4470    6.1390  -74.5240 C.2     1  UNL1       -0.5285
      5 C         -15.3870    6.2910  -75.7230 C.3     1  UNL1       -0.2187
      6 C         -15.8520    3.9620  -76.8370 C.2     1  UNL1       -0.3179
      7 C         -16.3730    5.1050  -75.7980 C.3     1  UNL1       -0.2060
      8 C         -16.3620    2.6840  -75.9840 C.3     1  UNL1       -0.1382
      9 C         -17.5140    2.0400  -76.5880 C.3     1  UNL1       -0.0583
     10 N         -18.3070    1.1860  -75.7630 N.4     1  UNL1        0.2351
     11 C         -18.7840    2.0510  -74.6850 C.3     1  UNL1       -0.0419
     12 C         -19.4290    0.6380  -76.4750 C.3     1  UNL1       -0.0419
     13 C         -17.5800    0.1110  -75.1450 C.3     1  UNL1       -0.0419
     14 C         -13.7720    2.5250  -76.3640 C.3     1  UNL1       -0.1699
     15 C         -12.4560    2.8050  -75.6180 C.3     1  UNL1       -0.0812
     16 C         -12.0260    4.2540  -75.5210 C.3     1  UNL1       -0.0809
     17 C         -12.4940    4.9660  -74.2380 C.3     1  UNL1       -0.1799
     18 C         -15.8155    3.8360  -74.2533 C.3     1  UNL1       -0.0669
     19 H         -15.9399    7.2015  -75.6225 H       1  UNL1       -0.0099
     20 H         -14.8018    6.3087  -76.6186 H       1  UNL1       -0.0099
     21 H         -16.4709    4.6718  -74.8245 H       1  UNL1       -0.0105
     22 H         -17.3153    5.4725  -76.1470 H       1  UNL1       -0.0105
     23 H         -16.6275    3.0111  -75.0004 H       1  UNL1       -0.0031
     24 H         -15.5654    1.9701  -75.9579 H       1  UNL1       -0.0031
     25 H         -17.1576    1.4514  -77.4074 H       1  UNL1        0.0789
     26 H         -18.1676    2.8459  -76.8490 H       1  UNL1        0.0789
     27 H         -19.3337    2.8693  -75.1011 H       1  UNL1        0.0778
     28 H         -17.9480    2.4269  -74.1329 H       1  UNL1        0.0778
     29 H         -19.4194    1.4898  -74.0321 H       1  UNL1        0.0778
     30 H         -19.0770    0.0056  -77.2631 H       1  UNL1        0.0778
     31 H         -20.0115    1.4340  -76.8897 H       1  UNL1        0.0778
     32 H         -20.0337    0.0665  -75.8022 H       1  UNL1        0.0778
     33 H         -17.2106   -0.5504  -75.9006 H       1  UNL1        0.0778
     34 H         -18.2298   -0.4269  -74.4868 H       1  UNL1        0.0778
     35 H         -16.7585    0.5101  -74.5876 H       1  UNL1        0.0778
     36 H         -13.6306    2.2374  -77.3849 H       1  UNL1       -0.0070
     37 H         -14.3985    1.7258  -76.0269 H       1  UNL1       -0.0070
     38 H         -11.6780    2.2685  -76.1198 H       1  UNL1        0.0241
     39 H         -12.6324    2.4951  -74.6092 H       1  UNL1        0.0241
     40 H         -12.4267    4.7801  -76.3621 H       1  UNL1        0.0242
     41 H         -10.9562    4.2570  -75.5020 H       1  UNL1        0.0242
     42 H         -12.0623    4.4816  -73.3872 H       1  UNL1       -0.0063
     43 H         -12.1824    5.9890  -74.2723 H       1  UNL1       -0.0063
     44 H         -16.1287    2.8796  -74.2876 H       1  UNL1        0.0368
     45 H         -15.9020    4.8040  -74.3919 H       1  UNL1        0.0368
     46 H         -15.7876    3.8132  -73.1839 H       1  UNL1        0.0368
     47 H         -14.4618    3.1210  -74.1869 H       1  UNL1        0.0621
     48 H         -13.7658    6.6655  -75.3777 H       1  UNL1       -0.2169
     49 H         -16.7640    3.7711  -77.3249 H       1  UNL1       -0.2057
     50 H         -13.3613    4.5588  -77.0140 H       1  UNL1       -0.1929
@<TRIPOS>BOND
     1     6     1    1
     2     6     8    1
     3     9     8    1
     4     9    10    1
     5    12    10    1
     6    14     1    1
     7    14    15    1
     8     1     2    1
     9    10    13    1
    10    10    11    1
    11    15    16    1
    12     7     6    1
    13     5     7    1
    14     5     4    1
    15     3     4    2
    16     3     2    1
    17     2    18    1
    18    17     3    1
    19    17    16    1
    20     5    19    1
    21     5    20    1
    22     7    21    1
    23     7    22    1
    24     8    23    1
    25     8    24    1
    26     9    25    1
    27     9    26    1
    28    11    27    1
    29    11    28    1
    30    11    29    1
    31    12    30    1
    32    12    31    1
    33    12    32    1
    34    13    33    1
    35    13    34    1
    36    13    35    1
    37    14    36    1
    38    14    37    1
    39    15    38    1
    40    15    39    1
    41    16    40    1
    42    16    41    1
    43    17    42    1
    44    17    43    1
    45    18    44    1
    46    18    45    1
    47    18    46    1
    48     2    47    1
    49     4    48    1
    50     6    49    1
    51     1    50    1
