@<TRIPOS>MOLECULE
*****
 56 59 0 0 0
SMALL
GASTEIGER

@<TRIPOS>ATOM
      1 C         -15.1080    4.7430  -75.5950 C.3     1  UNL1       -0.0873
      2 C         -15.2690    4.6390  -77.2320 C.3     1  UNL1       -0.0487
      3 C         -13.8170    3.8960  -77.5060 C.3     1  UNL1       -0.0172
      4 C         -13.5770    4.1130  -78.9980 C.3     1  UNL1        0.0898
      5 O         -14.7810    4.2970  -79.6930 O.3     1  UNL1       -0.4917
      6 C         -15.9200    3.4900  -79.6230 C.ar    1  UNL1        0.1237
      7 C         -17.7800    1.5200  -79.7950 C.ar    1  UNL1       -0.0613
      8 C         -17.1570    1.8920  -80.8980 C.ar    1  UNL1       -0.0583
      9 C         -17.4830    1.9580  -78.5790 C.ar    1  UNL1       -0.0551
     10 C         -16.2310    2.9250  -80.8360 C.ar    1  UNL1       -0.0197
     11 C         -16.4670    2.9000  -78.4990 C.ar    1  UNL1       -0.0055
     12 C         -16.0630    3.1570  -77.1040 C.3     1  UNL1       -0.0230
     13 N         -15.6470    5.9280  -75.1150 N.4     1  UNL1        0.3807
     14 C         -16.2800    6.8050  -76.0510 C.3     1  UNL1       -0.0894
     15 C         -14.6780    6.6650  -74.3250 C.3     1  UNL1       -0.0775
     16 C         -15.4870    7.5060  -73.3430 C.3     1  UNL1       -0.0156
     17 N         -15.5030    8.8690  -73.8210 N.3     1  UNL1       -0.3000
     18 C         -16.3200    9.0750  -74.9670 C.3     1  UNL1       -0.0025
     19 C         -17.0690    7.8980  -75.4730 C.3     1  UNL1       -0.0551
     20 C         -15.7520    9.7590  -72.7220 C.3     1  UNL1        0.0241
     21 C         -14.7210   10.8380  -72.8360 C.ar    1  UNL1       -0.0305
     22 C         -15.0940   12.1120  -72.4480 C.ar    1  UNL1       -0.0392
     23 C         -13.3960   10.5650  -73.1130 C.ar    1  UNL1       -0.0392
     24 C         -14.0930   12.9930  -72.0530 C.ar    1  UNL1        0.0278
     25 C         -12.4680   11.4510  -72.6320 C.ar    1  UNL1        0.0278
     26 N         -12.7800   12.6890  -72.1830 N.ar    1  UNL1       -0.2632
     27 H         -16.4178    5.5444  -75.6823 H       1  UNL1       -0.0818
     28 H         -15.6164    3.9184  -75.1406 H       1  UNL1        0.0062
     29 H         -14.0658    4.7210  -75.3536 H       1  UNL1        0.0062
     30 H         -15.5994    5.4672  -77.8235 H       1  UNL1        0.0287
     31 H         -13.0409    4.3484  -76.9247 H       1  UNL1        0.0300
     32 H         -13.8217    2.8616  -77.2323 H       1  UNL1        0.0300
     33 H         -12.9645    4.9806  -79.1286 H       1  UNL1        0.0696
     34 H         -13.0942    3.2421  -79.3895 H       1  UNL1        0.0696
     35 H         -18.5519    0.8410  -79.8854 H       1  UNL1        0.0618
     36 H         -17.3556    1.4212  -81.7946 H       1  UNL1        0.0619
     37 H         -17.9789    1.6179  -77.7403 H       1  UNL1        0.0621
     38 H         -15.7781    3.2670  -81.6980 H       1  UNL1        0.0654
     39 H         -15.4051    2.3940  -76.7436 H       1  UNL1        0.0316
     40 H         -16.8808    3.1655  -76.4141 H       1  UNL1        0.0316
     41 H         -16.9328    6.2168  -76.6615 H       1  UNL1        0.0059
     42 H         -15.4845    7.2759  -76.5898 H       1  UNL1        0.0059
     43 H         -14.0871    7.2959  -74.9557 H       1  UNL1        0.0071
     44 H         -14.0061    6.0063  -73.8154 H       1  UNL1        0.0071
     45 H         -15.0340    7.4673  -72.3744 H       1  UNL1        0.0408
     46 H         -16.4856    7.1289  -73.2693 H       1  UNL1        0.0408
     47 H         -15.6877    9.4211  -75.7577 H       1  UNL1        0.0426
     48 H         -17.0696    9.7722  -74.6557 H       1  UNL1        0.0426
     49 H         -17.6280    7.4948  -74.6545 H       1  UNL1        0.0259
     50 H         -17.6605    8.2720  -76.2824 H       1  UNL1        0.0259
     51 H         -15.6492    9.2411  -71.7913 H       1  UNL1        0.0476
     52 H         -16.7452   10.1559  -72.7513 H       1  UNL1        0.0476
     53 H         -16.0850   12.4001  -72.4515 H       1  UNL1        0.0636
     54 H         -13.1179    9.7330  -73.6566 H       1  UNL1        0.0636
     55 H         -14.3586   13.9048  -71.6491 H       1  UNL1        0.0829
     56 H         -11.4785   11.1587  -72.6110 H       1  UNL1        0.0829
@<TRIPOS>BOND
     1     8    10   ar
     2     8     7   ar
     3    10     6   ar
     4     7     9   ar
     5     5     6    1
     6     5     4    1
     7     6    11   ar
     8     4     3    1
     9     9    11   ar
    10     1    13    1
    11    13    15    1
    12    18    17    1
    13    15    16    1
    14    17    16    1
    15    17    20    1
    16    23    21   ar
    17    23    25   ar
    18    21    20    1
    19    21    22   ar
    20    25    26   ar
    21    22    24   ar
    22    26    24   ar
    23    12    11    1
    24     2    12    1
    25     2     3    1
    26     2     1    1
    27    13    14    1
    28    14    19    1
    29    19    18    1
    30    13    27    1
    31     1    28    1
    32     1    29    1
    33     2    30    1
    34     3    31    1
    35     3    32    1
    36     4    33    1
    37     4    34    1
    38     7    35    1
    39     8    36    1
    40     9    37    1
    41    10    38    1
    42    12    39    1
    43    12    40    1
    44    14    41    1
    45    14    42    1
    46    15    43    1
    47    15    44    1
    48    16    45    1
    49    16    46    1
    50    18    47    1
    51    18    48    1
    52    19    49    1
    53    19    50    1
    54    20    51    1
    55    20    52    1
    56    22    53    1
    57    23    54    1
    58    24    55    1
    59    25    56    1
