{\rtf1\ansi\ansicpg1252\cocoartf2707
\cocoatextscaling0\cocoaplatform0{\fonttbl\f0\fswiss\fcharset0 Helvetica;}
{\colortbl;\red255\green255\blue255;}
{\*\expandedcolortbl;;}
\paperw11900\paperh16840\margl1440\margr1440\vieww11520\viewh8400\viewkind0
\pard\tx720\tx1440\tx2160\tx2880\tx3600\tx4320\tx5040\tx5760\tx6480\tx7200\tx7920\tx8640\pardirnatural\partightenfactor0

\f0\fs24 \cf0 MODEL 1\
REMARK VINA RESULT:   -12.076      0.000      0.000\
REMARK INTER + INTRA:          -2.169\
REMARK INTER:                  -3.901\
REMARK INTRA:                   1.733\
REMARK UNBOUND:                19.085\
REMARK SMILES C=CCN1CCC[C@]2(CC1)CNCc1ccccc1O2\
REMARK SMILES IDX 8 1 9 3 10 4 4 5 3 6 2 7 1 8 5 9 6 10 7 12 20 14 19 15 14 16\
REMARK SMILES IDX 18 17 15 18 17 19 16 20 13 21 12 22 11 24\
REMARK H PARENT 12 23\
REMARK Flexibility Score: 160.00\
ROOT\
ATOM      1  C   UNL     1      -4.000  22.814 -87.983  1.00  0.00     0.123 CG1\
ATOM      2  G   UNL     1      -4.757  22.779 -89.304  1.00  0.00     0.000 G1\
ENDROOT\
BRANCH   1   3\
ATOM      3  C   UNL     1      -3.376  21.484 -87.665  1.00  0.00     0.065 C \
BRANCH   3   4\
ATOM      4  C   UNL     1      -3.101  21.294 -86.200  1.00  0.00     0.089 C \
BRANCH   4   5\
ATOM      5  N   UNL     1      -1.856  21.858 -85.768  1.00  0.00    -0.300 NA\
BRANCH   5   6\
ATOM      6  C   UNL     1      -0.894  20.896 -85.311  1.00  0.00     0.111 C \
BRANCH   6   7\
ATOM      7  C   UNL     1      -0.773  21.100 -83.830  1.00  0.00    -0.019 C \
ATOM      8  C   UNL     1      -0.275  21.123 -83.318  1.00  0.00     0.005 C \
ENDBRANCH   6   7\
ENDBRANCH   5   6\
BRANCH   5   9\
ATOM      9  C   UNL     1      -1.327  22.878 -86.617  1.00  0.00     0.085 C \
BRANCH   9  10\
ATOM     10  C   UNL     1      -2.212  24.074 -86.779  1.00  0.00     0.020 CG0\
ATOM     11  G   UNL     1      -2.984  23.912 -88.062  1.00  0.00     0.000 G0\
ENDBRANCH   9  10\
ENDBRANCH   5   9\
ENDBRANCH   4   5\
ENDBRANCH   3   4\
ENDBRANCH   1   3\
BRANCH   1  12\
ATOM     12  C   UNL     1      -2.996  23.930 -88.085  1.00  0.00     0.051 CG0\
ATOM     13  G   UNL     1      -2.220  24.052 -86.799  1.00  0.00     0.000 G0\
ENDBRANCH   1  12\
BRANCH   1  14\
ATOM     14  O   UNL     1      -4.968  23.066 -86.979  1.00  0.00    -0.486 OA\
BRANCH  14  15\
ATOM     15  C   UNL     1      -6.234  23.651 -87.043  1.00  0.00     0.124 A \
ATOM     16  C   UNL     1      -6.689  24.510 -88.022  1.00  0.00     0.008 A \
ATOM     17  C   UNL     1      -6.783  23.807 -85.782  1.00  0.00     0.047 A \
ATOM     18  C   UNL     1      -7.534  25.566 -87.710  1.00  0.00     0.009 A \
ATOM     19  C   UNL     1      -7.548  24.915 -85.452  1.00  0.00     0.004 A \
ATOM     20  C   UNL     1      -7.785  25.910 -86.390  1.00  0.00     0.001 A \
BRANCH  16  21\
ATOM     21  C   UNL     1      -6.417  24.531 -89.470  1.00  0.00     0.120 C \
BRANCH  21  22\
ATOM     22  N   UNL     1      -5.085  24.099 -89.813  1.00  0.00    -0.309 NA\
ATOM     23  H   UNL     1      -4.992  24.106 -90.829  1.00  0.00     0.123 HD\
BRANCH  22  24\
ATOM     24  C   UNL     1      -4.789  22.774 -89.333  1.00  0.00     0.129 CG1\
ATOM     25  G   UNL     1      -4.012  22.818 -88.024  1.00  0.00     0.000 G1\
ENDBRANCH  22  24\
ENDBRANCH  21  22\
ENDBRANCH  16  21\
ENDBRANCH  14  15\
ENDBRANCH   1  14\
TORSDOF 2\
ENDMDL}