@<TRIPOS>MOLECULE
*****
 45 47 0 0 0
SMALL
GASTEIGER

@<TRIPOS>ATOM
      1 C          -4.0000   22.8140  -87.9830 C.3     1  UNL1        0.1212
      2 C          -3.3760   21.4840  -87.6650 C.3     1  UNL1       -0.0266
      3 C          -3.1010   21.2940  -86.2000 C.3     1  UNL1       -0.0866
      4 N          -1.8560   21.8580  -85.7680 N.4     1  UNL1        0.3821
      5 C          -0.8940   20.8960  -85.3110 C.3     1  UNL1       -0.0718
      6 C          -0.7730   21.1000  -83.8300 C.2     1  UNL1       -0.1078
      7 C           0.0580   21.1520  -83.0620 C.2     1  UNL1       -0.1044
      8 C          -1.3270   22.8780  -86.6170 C.3     1  UNL1       -0.0901
      9 C          -2.2120   24.0740  -86.7790 C.3     1  UNL1       -0.0644
     10 C          -2.9960   23.9300  -88.0850 C.3     1  UNL1       -0.0134
     11 O          -4.9680   23.0660  -86.9790 O.3     1  UNL1       -0.4842
     12 C          -6.2340   23.6510  -87.0430 C.ar    1  UNL1        0.1258
     13 C          -6.6890   24.5100  -88.0220 C.ar    1  UNL1        0.0081
     14 C          -6.7830   23.8070  -85.7820 C.ar    1  UNL1       -0.0196
     15 C          -7.5340   25.5660  -87.7100 C.ar    1  UNL1       -0.0539
     16 C          -7.5480   24.9150  -85.4520 C.ar    1  UNL1       -0.0583
     17 C          -7.7850   25.9100  -86.3900 C.ar    1  UNL1       -0.0612
     18 C          -6.4170   24.5310  -89.4700 C.3     1  UNL1        0.0248
     19 N          -5.0850   24.0990  -89.8130 N.3     1  UNL1       -0.3081
     20 C          -4.7890   22.7740  -89.3330 C.3     1  UNL1        0.0361
     21 H          -4.9650   24.1380  -90.8250 H       1  UNL1        0.1224
     22 H          -4.0400   20.7100  -87.9890 H       1  UNL1        0.0286
     23 H          -2.4350   21.4450  -88.1730 H       1  UNL1        0.0286
     24 H          -3.0860   20.2440  -85.9930 H       1  UNL1        0.0060
     25 H          -3.8760   21.8050  -85.6680 H       1  UNL1        0.0060
     26 H           0.0500   21.0600  -85.7870 H       1  UNL1        0.0101
     27 H          -1.1990   19.8970  -85.5440 H       1  UNL1        0.0101
     28 H          -1.6980   21.2270  -83.3910 H       1  UNL1        0.0547
     29 H           1.0410   21.0410  -83.3570 H       1  UNL1        0.0531
     30 H          -0.1670   21.3110  -82.0680 H       1  UNL1        0.0531
     31 H          -1.1590   22.4530  -87.5850 H       1  UNL1        0.0059
     32 H          -0.4290   23.2260  -86.1500 H       1  UNL1        0.0059
     33 H          -1.6150   24.9620  -86.8130 H       1  UNL1        0.0248
     34 H          -2.8890   24.1420  -85.9530 H       1  UNL1        0.0248
     35 H          -2.3140   23.7170  -88.8820 H       1  UNL1        0.0303
     36 H          -3.5170   24.8450  -88.2760 H       1  UNL1        0.0303
     37 H          -6.6190   23.0790  -85.0690 H       1  UNL1        0.0654
     38 H          -7.9810   26.1020  -88.4700 H       1  UNL1        0.0622
     39 H          -7.9440   25.0000  -84.5030 H       1  UNL1        0.0619
     40 H          -8.1260   26.8460  -86.1220 H       1  UNL1        0.0618
     41 H          -7.1180   23.8840  -89.9550 H       1  UNL1        0.0475
     42 H          -6.5100   25.5470  -89.7920 H       1  UNL1        0.0475
     43 H          -4.1990   22.2630  -90.0650 H       1  UNL1        0.0463
     44 H          -5.7150   22.2640  -89.1650 H       1  UNL1        0.0463
     45 H          -1.3470   21.7450  -86.5960 H       1  UNL1       -0.0814
@<TRIPOS>BOND
     1     1    20    1
     2     1    11    1
     3     1    10    1
     4     1     2    1
     5     2     3    1
     6     2    22    1
     7     2    23    1
     8     3     4    1
     9     3    24    1
    10     3    25    1
    11     4     8    1
    12     4     5    1
    13     4    45    1
    14     5     6    1
    15     5    26    1
    16     5    27    1
    17     6     7    2
    18     6    28    1
    19     7    29    1
    20     7    30    1
    21     8     9    1
    22     8    31    1
    23     8    32    1
    24     9    10    1
    25     9    33    1
    26     9    34    1
    27    10    35    1
    28    10    36    1
    29    11    12    1
    30    12    13   ar
    31    12    14   ar
    32    13    18    1
    33    13    15   ar
    34    14    16   ar
    35    14    37    1
    36    15    17   ar
    37    15    38    1
    38    16    17   ar
    39    16    39    1
    40    17    40    1
    41    18    19    1
    42    18    41    1
    43    18    42    1
    44    19    21    1
    45    19    20    1
    46    20    43    1
    47    20    44    1
