{\rtf1\ansi\ansicpg1252\cocoartf2707
\cocoatextscaling0\cocoaplatform0{\fonttbl\f0\fswiss\fcharset0 Helvetica;}
{\colortbl;\red255\green255\blue255;}
{\*\expandedcolortbl;;}
\paperw11900\paperh16840\margl1440\margr1440\vieww11520\viewh8400\viewkind0
\pard\tx720\tx1440\tx2160\tx2880\tx3600\tx4320\tx5040\tx5760\tx6480\tx7200\tx7920\tx8640\pardirnatural\partightenfactor0

\f0\fs24 \cf0 MODEL 1\
REMARK VINA RESULT:   -12.082      0.000      0.000\
REMARK INTER + INTRA:          -3.694\
REMARK INTER:                  -5.446\
REMARK INTRA:                   1.752\
REMARK UNBOUND:                18.983\
REMARK SMILES CN(C)C(=O)CN1CCOCC2(CCN(c3ncc4c(c3C#N)CCCNC4)CC2)C1\
REMARK SMILES IDX 12 1 13 2 14 3 15 4 29 5 30 6 31 7 7 8 6 9 4 10 1 11 2 12\
REMARK SMILES IDX 3 13 5 14 8 15 11 17 10 18 9 19 16 21 17 22 21 23 18 24\
REMARK SMILES IDX 20 25 19 26 22 27 23 28 24 29 25 30 28 32 27 33 26 35\
REMARK H PARENT 27 34\
REMARK Flexibility Score: 180.00\
ROOT\
ATOM      1  C   UNL     1     -22.185  11.010 -68.609  1.00  0.00     0.010 C \
ATOM      2  C   UNL     1     -22.043  12.128 -67.612  1.00  0.00     0.032 C \
ATOM      3  C   UNL     1     -23.276  12.199 -66.766  1.00  0.00     0.119 C \
ATOM      4  N   UNL     1     -23.704  10.917 -66.251  1.00  0.00    -0.355 N \
ATOM      5  C   UNL     1     -23.679   9.778 -67.164  1.00  0.00     0.119 C \
ATOM      6  C   UNL     1     -22.291   9.724 -67.794  1.00  0.00     0.032 C \
ENDROOT\
BRANCH   1   7\
ATOM      7  C   UNL     1     -21.019  10.871 -69.536  1.00  0.00     0.094 C \
BRANCH   7   8\
ATOM      8  N   UNL     1     -21.143  11.626 -70.754  1.00  0.00    -0.292 NA\
BRANCH   8   9\
ATOM      9  C   UNL     1     -19.815  11.938 -71.254  1.00  0.00     0.185 C \
BRANCH   9  10\
ATOM     10  C   UNL     1     -19.660  13.400 -71.533  1.00  0.00     0.236 C \
ATOM     11  C   UNL     1     -18.507  15.545 -71.209  1.00  0.00     0.146 C \
ATOM     12  N   UNL     1     -18.449  14.086 -71.193  1.00  0.00    -0.348 N \
ATOM     13  C   UNL     1     -17.188  13.483 -71.550  1.00  0.00     0.146 C \
ATOM     14  O   UNL     1     -20.230  13.817 -72.587  1.00  0.00    -0.273 OA\
ENDBRANCH   9  10\
ENDBRANCH   8   9\
BRANCH   8  15\
ATOM     15  C   UNL     1     -21.801  10.859 -71.809  1.00  0.00     0.113 CG0\
ATOM     16  G   UNL     1     -23.296  10.996 -71.582  1.00  0.00     0.000 G0\
ENDBRANCH   8  15\
ENDBRANCH   7   8\
ENDBRANCH   1   7\
BRANCH   1  17\
ATOM     17  C   UNL     1     -23.513  11.121 -69.348  1.00  0.00     0.168 C \
BRANCH  17  18\
ATOM     18  O   UNL     1     -23.596  10.242 -70.414  1.00  0.00    -0.379 OA\
BRANCH  18  19\
ATOM     19  C   UNL     1     -23.315  10.991 -71.567  1.00  0.00     0.175 CG0\
ATOM     20  G   UNL     1     -21.820  10.861 -71.792  1.00  0.00     0.000 G0\
ENDBRANCH  18  19\
ENDBRANCH  17  18\
ENDBRANCH   1  17\
BRANCH   4  21\
ATOM     21  C   UNL     1     -24.801  10.943 -65.330  1.00  0.00     0.146 A \
ATOM     22  N   UNL     1     -25.912  11.678 -65.537  1.00  0.00    -0.238 NA\
ATOM     23  C   UNL     1     -24.859  10.070 -64.248  1.00  0.00     0.098 A \
ATOM     24  C   UNL     1     -27.103  11.385 -64.975  1.00  0.00     0.119 A \
ATOM     25  C   UNL     1     -26.032   9.872 -63.540  1.00  0.00    -0.020 A \
ATOM     26  C   UNL     1     -27.217  10.389 -64.038  1.00  0.00    -0.011 A \
BRANCH  23  27\
ATOM     27  C   UNL     1     -23.713   9.285 -63.891  1.00  0.00     0.103 C \
ATOM     28  N   UNL     1     -22.689   8.743 -63.999  1.00  0.00    -0.192 NA\
ENDBRANCH  23  27\
BRANCH  25  29\
ATOM     29  C   UNL     1     -25.895   8.893 -62.422  1.00  0.00     0.039 C \
BRANCH  29  30\
ATOM     30  C   UNL     1     -26.871   7.754 -62.673  1.00  0.00     0.020 CG1\
ATOM     31  G   UNL     1     -28.291   8.140 -62.364  1.00  0.00     0.000 G1\
ENDBRANCH  29  30\
ENDBRANCH  25  29\
BRANCH  26  32\
ATOM     32  C   UNL     1     -28.564  10.271 -63.420  1.00  0.00     0.118 C \
BRANCH  32  33\
ATOM     33  N   UNL     1     -28.501   9.563 -62.144  1.00  0.00    -0.313 NA\
ATOM     34  H   UNL     1     -27.716   9.924 -61.601  1.00  0.00     0.123 HD\
BRANCH  33  35\
ATOM     35  C   UNL     1     -28.320   8.138 -62.352  1.00  0.00     0.081 CG1\
ATOM     36  G   UNL     1     -26.894   7.770 -62.656  1.00  0.00     0.000 G1\
ENDBRANCH  33  35\
ENDBRANCH  32  33\
ENDBRANCH  26  32\
ENDBRANCH   4  21\
TORSDOF 4\
ENDMDL}