@<TRIPOS>MOLECULE
*****
 63 67 0 0 0
SMALL
GASTEIGER

@<TRIPOS>ATOM
      1 N         -20.6150    8.3250  -70.0950 N.pl3   1  UNL1       -0.2243
      2 C         -21.7280    7.3660  -70.1070 C.3     1  UNL1        0.0560
      3 C         -22.8380    8.3500  -69.7350 C.3     1  UNL1       -0.1137
      4 C         -22.3090    8.5110  -68.2110 C.2     1  UNL1       -0.1490
      5 C         -21.5100   10.0190  -68.3980 C.3     1  UNL1       -0.0002
      6 C         -20.5980    9.6320  -69.6860 C.3     1  UNL1        0.0809
      7 C         -20.0400    8.2410  -71.4210 C.2     1  UNL1        0.2965
      8 C         -18.8050    7.6800  -71.5750 C.2     1  UNL1        0.1399
      9 C         -18.2790    7.5870  -72.8580 C.2     1  UNL1       -0.0503
     10 C         -18.9740    8.1420  -73.9270 C.2     1  UNL1       -0.1790
     11 N         -20.7850    8.4840  -72.5270 N.2     1  UNL1       -0.2372
     12 C         -20.3200    8.3110  -73.7660 C.2     1  UNL1       -0.1417
     13 C         -18.2030    6.8550  -70.5520 C.1     1  UNL1        0.1074
     14 N         -17.5220    6.3640  -69.8160 N.1     1  UNL1       -0.1906
     15 C         -16.8070    7.3220  -72.8080 C.3     1  UNL1       -0.0302
     16 C         -16.0750    8.4070  -73.5570 C.3     1  UNL1       -0.0645
     17 C         -18.6130    8.0100  -75.3500 C.3     1  UNL1       -0.0954
     18 N         -17.4080    8.7580  -75.6440 N.4     1  UNL1        0.3800
     19 C         -16.2210    8.1650  -75.0890 C.3     1  UNL1       -0.0928
     20 O         -22.5820   10.6430  -69.2720 O.3     1  UNL1       -0.3969
     21 C         -22.9180   11.7330  -68.4780 C.3     1  UNL1        0.0847
     22 C         -23.7040    9.1640  -67.7210 C.3     1  UNL1       -0.1296
     23 N         -23.4650   10.0700  -66.6730 N.4     1  UNL1        0.2198
     24 C         -22.8980    9.4260  -65.5350 C.3     1  UNL1       -0.0068
     25 C         -23.9540    9.4320  -64.4730 C.ar    1  UNL1        0.0151
     26 C         -24.1410    8.3260  -63.6520 C.ar    1  UNL1       -0.0507
     27 C         -24.5960   10.5810  -64.0760 C.ar    1  UNL1        0.0358
     28 C         -25.4410    8.1680  -63.1840 C.ar    1  UNL1       -0.0432
     29 N         -25.7060   10.4710  -63.3130 N.ar    1  UNL1       -0.2628
     30 C         -26.2900    9.2640  -63.1090 C.ar    1  UNL1        0.0276
     31 C         -22.9630   11.3540  -66.9910 C.3     1  UNL1       -0.0101
     32 H         -17.5092    9.6983  -75.2619 H       1  UNL1       -0.0856
     33 H         -15.3688    8.5835  -75.5825 H       1  UNL1        0.0054
     34 H         -16.2926    7.1080  -75.2393 H       1  UNL1        0.0054
     35 H         -21.6076    6.5922  -69.3779 H       1  UNL1        0.0701
     36 H         -21.8678    6.8108  -71.0109 H       1  UNL1        0.0701
     37 H         -23.8191    7.9281  -69.8014 H       1  UNL1       -0.0022
     38 H         -22.9648    9.2301  -70.3302 H       1  UNL1       -0.0022
     39 H         -20.9310   10.2308  -70.5078 H       1  UNL1        0.0725
     40 H         -19.5902    9.8102  -69.3739 H       1  UNL1        0.0725
     41 H         -16.5997    6.3745  -73.2599 H       1  UNL1        0.0312
     42 H         -16.4812    7.3101  -71.7889 H       1  UNL1        0.0312
     43 H         -16.4922    9.3594  -73.3044 H       1  UNL1        0.0250
     44 H         -15.0392    8.3907  -73.2891 H       1  UNL1        0.0250
     45 H         -18.4493    6.9771  -75.5765 H       1  UNL1        0.0076
     46 H         -19.4128    8.3984  -75.9453 H       1  UNL1        0.0076
     47 H         -23.8805   12.0949  -68.7737 H       1  UNL1        0.0612
     48 H         -22.1703   12.4870  -68.6095 H       1  UNL1        0.0612
     49 H         -24.3576    8.3892  -67.3783 H       1  UNL1        0.0468
     50 H         -24.1572    9.6831  -68.5396 H       1  UNL1        0.0468
     51 H         -22.0338    9.9607  -65.2000 H       1  UNL1        0.0867
     52 H         -23.3775    7.6753  -63.4096 H       1  UNL1        0.0623
     53 H         -23.5776   12.0741  -66.4923 H       1  UNL1        0.0836
     54 H         -21.9407   11.3400  -66.6755 H       1  UNL1        0.0836
     55 H         -27.1056    9.2099  -62.5099 H       1  UNL1        0.0829
     56 H         -25.9069    7.3965  -62.6284 H       1  UNL1        0.0633
     57 H         -24.5202   11.5708  -64.4154 H       1  UNL1        0.0834
     58 H         -22.6676    8.4509  -65.8477 H       1  UNL1        0.0867
     59 H         -24.0635   10.5801  -66.1450 H       1  UNL1        0.2012
     60 H         -21.0571   10.2090  -67.5287 H       1  UNL1        0.0304
     61 H         -21.9182    7.7459  -67.6307 H       1  UNL1       -0.1694
     62 H         -20.8774    8.7071  -74.5319 H       1  UNL1       -0.1337
     63 H         -17.7585    8.9424  -76.4980 H       1  UNL1       -0.0856
@<TRIPOS>BOND
     1    18    17    1
     2    17    10    1
     3    10    12    2
     4    10     9    1
     5    12    11    1
     6     9    15    1
     7     9     8    2
     8    11     7    2
     9     8     7    1
    10     8    13    1
    11     7     1    1
    12    13    14    3
    13     2     1    1
    14     2     3    1
    15     1     6    1
    16     3     4    1
    17     6     5    1
    18    20     5    1
    19     5     4    1
    20     4    22    1
    21    22    23    1
    22    23    24    1
    23    24    25    1
    24    25    27   ar
    25    25    26   ar
    26    26    28   ar
    27    29    30   ar
    28    18    19    1
    29    18    32    1
    30    19    16    1
    31    19    33    1
    32    19    34    1
    33    16    15    1
    34    20    21    1
    35    31    21    1
    36    31    23    1
    37    27    29   ar
    38    30    28   ar
    39     2    35    1
    40     2    36    1
    41     3    37    1
    42     3    38    1
    43     6    39    1
    44     6    40    1
    45    15    41    1
    46    15    42    1
    47    16    43    1
    48    16    44    1
    49    17    45    1
    50    17    46    1
    51    21    47    1
    52    21    48    1
    53    22    49    1
    54    22    50    1
    55    24    51    1
    56    26    52    1
    57    31    53    1
    58    31    54    1
    59    30    55    1
    60    28    56    1
    61    27    57    1
    62    24    58    1
    63    23    59    1
    64     5    60    1
    65     4    61    1
    66    12    62    1
    67    18    63    1
