@<TRIPOS>MOLECULE
*****
 50 51 0 0 0
SMALL
GASTEIGER

@<TRIPOS>ATOM
      1 C         -25.9250    5.4750  -63.4520 C.3     1  UNL1        0.0095
      2 N         -26.1080    6.5930  -64.5870 N.pl3   1  UNL1       -0.3966
      3 C         -25.4210    6.4900  -65.7040 C.3     1  UNL1       -0.0168
      4 C         -27.1380    7.3880  -64.0240 C.2     1  UNL1       -0.0137
      5 C         -28.2670    6.7050  -63.6910 C.2     1  UNL1       -0.0685
      6 C         -28.3560    5.1870  -63.5280 C.3     1  UNL1       -0.0328
      7 C         -26.0940    4.2890  -64.6660 C.3     1  UNL1       -0.0253
      8 C         -27.7190    4.3470  -64.5600 C.3     1  UNL1       -0.0451
      9 C         -25.9420    3.0610  -63.6000 C.3     1  UNL1       -0.0631
     10 C         -25.9960    1.9030  -64.5940 C.3     1  UNL1       -0.0886
     11 N         -25.1450    0.8060  -64.2300 N.4     1  UNL1        0.3744
     12 C         -23.8770    1.4010  -63.8450 C.3     1  UNL1       -0.1012
     13 C         -25.6890   -0.0310  -63.2030 C.3     1  UNL1       -0.1012
     14 C         -24.9350    0.0150  -65.4260 C.3     1  UNL1       -0.1012
     15 C         -24.3110    5.7180  -63.4790 C.3     1  UNL1       -0.0356
     16 C         -24.4150    6.9870  -62.6150 C.3     1  UNL1       -0.0511
     17 C         -25.7070    7.2880  -61.9370 C.3     1  UNL1       -0.0479
     18 C         -26.7030    8.1280  -62.7570 C.3     1  UNL1       -0.0164
     19 H         -24.7231    5.6833  -65.6204 H       1  UNL1        0.0411
     20 H         -24.8916    7.4026  -65.8826 H       1  UNL1        0.0411
     21 H         -26.0895    6.3004  -66.5177 H       1  UNL1        0.0411
     22 H         -25.0181    6.9498  -64.5006 H       1  UNL1        0.1261
     23 H         -26.4313    5.3766  -62.5145 H       1  UNL1        0.0487
     24 H         -29.1280    7.2527  -63.5369 H       1  UNL1        0.0587
     25 H         -27.9034    4.9394  -62.5906 H       1  UNL1        0.0308
     26 H         -29.4002    4.9676  -63.6080 H       1  UNL1        0.0308
     27 H         -25.5690    4.3026  -65.5982 H       1  UNL1        0.0318
     28 H         -28.0548    3.3446  -64.3946 H       1  UNL1        0.0271
     29 H         -28.0113    4.8152  -65.4767 H       1  UNL1        0.0271
     30 H         -26.7502    3.0309  -62.8995 H       1  UNL1        0.0251
     31 H         -25.0799    3.0947  -62.9670 H       1  UNL1        0.0251
     32 H         -27.0040    1.5481  -64.6484 H       1  UNL1        0.0064
     33 H         -25.6500    2.2754  -65.5355 H       1  UNL1        0.0064
     34 H         -23.5140    2.0145  -64.6430 H       1  UNL1        0.0028
     35 H         -23.1676    0.6268  -63.6392 H       1  UNL1        0.0028
     36 H         -24.0154    1.9999  -62.9692 H       1  UNL1        0.0028
     37 H         -26.6190   -0.4435  -63.5344 H       1  UNL1        0.0028
     38 H         -25.8511    0.5491  -62.3187 H       1  UNL1        0.0028
     39 H         -25.0033   -0.8240  -62.9887 H       1  UNL1        0.0028
     40 H         -24.5285    0.6355  -66.1971 H       1  UNL1        0.0028
     41 H         -25.8687   -0.3934  -65.7520 H       1  UNL1        0.0028
     42 H         -24.2528   -0.7810  -65.2119 H       1  UNL1        0.0028
     43 H         -23.9235    5.9002  -64.4596 H       1  UNL1        0.0283
     44 H         -23.6627    4.9277  -63.1629 H       1  UNL1        0.0283
     45 H         -24.1912    7.8190  -63.2495 H       1  UNL1        0.0266
     46 H         -23.7344    6.8085  -61.8089 H       1  UNL1        0.0266
     47 H         -25.4901    7.8209  -61.0348 H       1  UNL1        0.0269
     48 H         -26.1819    6.3430  -61.7746 H       1  UNL1        0.0269
     49 H         -27.5657    8.3305  -62.1573 H       1  UNL1        0.0325
     50 H         -26.2218    9.0393  -63.0448 H       1  UNL1        0.0325
@<TRIPOS>BOND
     1     3     2    1
     2    14    11    1
     3     7     9    1
     4     7     1    1
     5    10    11    1
     6    10     9    1
     7     2     1    1
     8    11    12    1
     9    11    13    1
    10    15     1    1
    11    15    16    1
    12    16    17    1
    13     8     7    1
    14     8     6    1
    15     6     5    1
    16     5     4    2
    17     4     2    1
    18     4    18    1
    19    18    17    1
    20     3    19    1
    21     3    20    1
    22     3    21    1
    23     2    22    1
    24     1    23    1
    25     5    24    1
    26     6    25    1
    27     6    26    1
    28     7    27    1
    29     8    28    1
    30     8    29    1
    31     9    30    1
    32     9    31    1
    33    10    32    1
    34    10    33    1
    35    12    34    1
    36    12    35    1
    37    12    36    1
    38    13    37    1
    39    13    38    1
    40    13    39    1
    41    14    40    1
    42    14    41    1
    43    14    42    1
    44    15    43    1
    45    15    44    1
    46    16    45    1
    47    16    46    1
    48    17    47    1
    49    17    48    1
    50    18    49    1
    51    18    50    1
