{\rtf1\ansi\ansicpg1252\cocoartf2707
\cocoatextscaling0\cocoaplatform0{\fonttbl\f0\fswiss\fcharset0 Helvetica;}
{\colortbl;\red255\green255\blue255;}
{\*\expandedcolortbl;;}
\paperw11900\paperh16840\margl1440\margr1440\vieww11520\viewh8400\viewkind0
\pard\tx720\tx1440\tx2160\tx2880\tx3600\tx4320\tx5040\tx5760\tx6480\tx7200\tx7920\tx8640\pardirnatural\partightenfactor0

\f0\fs24 \cf0 MODEL 1\
REMARK VINA RESULT:   -13.735      0.000      0.000\
REMARK INTER + INTRA:          -3.976\
REMARK INTER:                  -5.445\
REMARK INTRA:                   1.469\
REMARK UNBOUND:                18.591\
REMARK SMILES C(/C=N\\NC1=NCCCCN1)=N/NC1=NCCCCN1\
REMARK SMILES IDX 1 1 12 2 2 3 3 4 4 5 5 6 6 8 11 9 7 11 8 12 10 14 9 15 13 17\
REMARK SMILES IDX 14 18 15 20 20 21 16 23 17 24 19 26 18 27\
REMARK H PARENT 4 7 11 10 13 19 20 22\
REMARK Flexibility Score: 180.00\
ROOT\
ATOM      1  C   UNL     1     -15.689   6.800 -75.154  1.00  0.00     0.155 C \
ATOM      2  N   UNL     1     -14.863   6.423 -76.084  1.00  0.00    -0.180 NA\
ENDROOT\
BRANCH   1   3\
ATOM      3  C   UNL     1     -16.410   8.046 -75.448  1.00  0.00     0.155 C \
ATOM      4  N   UNL     1     -15.822   9.157 -75.113  1.00  0.00    -0.180 NA\
BRANCH   4   5\
ATOM      5  N   UNL     1     -14.867   9.081 -74.079  1.00  0.00    -0.247 N \
ATOM      6  C   UNL     1     -14.437  10.283 -73.468  1.00  0.00     0.212 C \
ATOM      7  H   UNL     1     -14.508   8.212 -73.789  1.00  0.00     0.193 HD\
ATOM      8  N   UNL     1     -15.429  11.073 -73.187  1.00  0.00    -0.252 NA\
ATOM      9  N   UNL     1     -13.068  10.455 -73.133  1.00  0.00    -0.355 N \
ATOM     10  H   UNL     1     -12.538   9.626 -73.135  1.00  0.00     0.163 HD\
BRANCH   8  11\
ATOM     11  C   UNL     1     -15.549  12.079 -72.138  1.00  0.00     0.146 C \
BRANCH  11  12\
ATOM     12  C   UNL     1     -14.253  12.236 -71.373  1.00  0.00     0.026 CG0\
ATOM     13  G   UNL     1     -13.230  12.775 -72.339  1.00  0.00     0.000 G0\
ENDBRANCH  11  12\
ENDBRANCH   8  11\
BRANCH   9  14\
ATOM     14  C   UNL     1     -12.318  11.658 -72.784  1.00  0.00     0.116 C \
BRANCH  14  15\
ATOM     15  C   UNL     1     -13.226  12.771 -72.334  1.00  0.00     0.023 CG0\
ATOM     16  G   UNL     1     -14.275  12.253 -71.387  1.00  0.00     0.000 G0\
ENDBRANCH  14  15\
ENDBRANCH   9  14\
ENDBRANCH   4   5\
ENDBRANCH   1   3\
BRANCH   2  17\
ATOM     17  N   UNL     1     -15.442   6.266 -77.358  1.00  0.00    -0.247 N \
ATOM     18  C   UNL     1     -14.902   5.238 -78.197  1.00  0.00     0.212 C \
ATOM     19  H   UNL     1     -16.186   6.838 -77.658  1.00  0.00     0.193 HD\
ATOM     20  N   UNL     1     -13.694   4.874 -77.981  1.00  0.00    -0.252 NA\
ATOM     21  N   UNL     1     -15.786   4.694 -79.158  1.00  0.00    -0.355 N \
ATOM     22  H   UNL     1     -16.545   5.288 -79.357  1.00  0.00     0.163 HD\
BRANCH  20  23\
ATOM     23  C   UNL     1     -12.879   3.797 -78.519  1.00  0.00     0.146 C \
BRANCH  23  24\
ATOM     24  C   UNL     1     -13.791   2.611 -78.704  1.00  0.00     0.026 CG1\
ATOM     25  G   UNL     1     -14.496   2.782 -80.023  1.00  0.00     0.000 G1\
ENDBRANCH  23  24\
ENDBRANCH  20  23\
BRANCH  21  26\
ATOM     26  C   UNL     1     -15.826   3.470 -79.910  1.00  0.00     0.116 C \
BRANCH  26  27\
ATOM     27  C   UNL     1     -14.493   2.790 -80.032  1.00  0.00     0.023 CG1\
ATOM     28  G   UNL     1     -13.791   2.615 -78.711  1.00  0.00     0.000 G1\
ENDBRANCH  26  27\
ENDBRANCH  21  26\
ENDBRANCH   2  17\
TORSDOF 3\
ENDMDL}