MODEL 1
REMARK VINA RESULT:   -13.329      0.000      0.000
REMARK INTER + INTRA:          -2.147
REMARK INTER:                  -5.158
REMARK INTRA:                   3.011
REMARK UNBOUND:                20.534
REMARK SMILES O=C(NCc1cccc(CNC(=O)[C@H]2CN3CCCN2CC3)c1)[C@H]1CN2CCCN1CC2
REMARK SMILES IDX 5 1 6 2 7 3 8 4 9 5 23 6 4 7 3 8 1 9 2 10 24 12 25 13 30 14
REMARK SMILES IDX 26 15 31 16 32 17 29 18 27 20 28 21 10 23 11 24 12 25 13 27
REMARK SMILES IDX 14 28 15 29 20 30 16 31 21 32 22 33 19 34 18 35 17 37
REMARK H PARENT 3 11 11 26
REMARK Flexibility Score: 180.00
ROOT
ATOM      1  C   UNL     1     -26.602  10.199 -63.353  1.00  0.00    -0.028 A 
ATOM      2  C   UNL     1     -27.186   9.121 -62.698  1.00  0.00     0.005 A 
ATOM      3  C   UNL     1     -26.466   8.045 -62.254  1.00  0.00     0.001 A 
ATOM      4  C   UNL     1     -25.125   7.976 -62.596  1.00  0.00     0.005 A 
ATOM      5  C   UNL     1     -24.537   8.943 -63.399  1.00  0.00    -0.028 A 
ATOM      6  C   UNL     1     -25.230  10.136 -63.513  1.00  0.00     0.011 A 
ENDROOT
BRANCH   1   7
ATOM      7  C   UNL     1     -27.425  11.140 -64.161  1.00  0.00     0.151 C 
BRANCH   7   8
ATOM      8  N   UNL     1     -26.630  12.293 -64.481  1.00  0.00    -0.351 N 
ATOM      9  O   UNL     1     -27.957  13.529 -65.252  1.00  0.00    -0.273 OA
ATOM     10  C   UNL     1     -27.187  13.326 -65.315  1.00  0.00     0.238 C 
ATOM     11  H   UNL     1     -25.714  12.376 -64.132  1.00  0.00     0.163 HD
BRANCH  10  12
ATOM     12  C   UNL     1     -26.255  13.696 -66.589  1.00  0.00     0.160 C 
ATOM     13  C   UNL     1     -27.246  14.920 -67.041  1.00  0.00     0.113 C 
ATOM     14  N   UNL     1     -25.331  14.600 -65.700  1.00  0.00    -0.290 NA
ATOM     15  N   UNL     1     -26.503  16.086 -67.259  1.00  0.00    -0.300 NA
ATOM     16  C   UNL     1     -26.076  15.563 -65.027  1.00  0.00     0.101 C 
ATOM     17  C   UNL     1     -26.277  16.737 -65.982  1.00  0.00     0.100 C 
BRANCH  14  18
ATOM     18  C   UNL     1     -24.172  14.918 -66.397  1.00  0.00     0.087 CG1
ATOM     19  G   UNL     1     -24.421  14.938 -67.900  1.00  0.00     0.000 G1
ENDBRANCH  14  18
BRANCH  15  20
ATOM     20  C   UNL     1     -25.391  16.051 -68.127  1.00  0.00     0.086 C 
BRANCH  20  21
ATOM     21  C   UNL     1     -24.411  14.943 -67.890  1.00  0.00     0.031 CG1
ATOM     22  G   UNL     1     -24.178  14.931 -66.385  1.00  0.00     0.000 G1
ENDBRANCH  20  21
ENDBRANCH  15  20
ENDBRANCH  10  12
ENDBRANCH   7   8
ENDBRANCH   1   7
BRANCH   5  23
ATOM     23  C   UNL     1     -23.284   8.695 -64.166  1.00  0.00     0.151 C 
BRANCH  23  24
ATOM     24  N   UNL     1     -23.338   9.558 -65.330  1.00  0.00    -0.351 N 
ATOM     25  C   UNL     1     -23.701   9.052 -66.549  1.00  0.00     0.238 C 
ATOM     26  H   UNL     1     -23.114  10.513 -65.243  1.00  0.00     0.163 HD
ATOM     27  O   UNL     1     -24.205   7.890 -66.606  1.00  0.00    -0.273 OA
BRANCH  25  28
ATOM     28  C   UNL     1     -24.237   9.975 -67.753  1.00  0.00     0.160 C 
ATOM     29  C   UNL     1     -23.221  11.234 -67.459  1.00  0.00     0.113 C 
ATOM     30  N   UNL     1     -23.239   9.303 -68.770  1.00  0.00    -0.290 NA
ATOM     31  N   UNL     1     -22.891  11.826 -68.709  1.00  0.00    -0.300 NA
ATOM     32  C   UNL     1     -23.414   9.936 -70.027  1.00  0.00     0.101 C 
ATOM     33  C   UNL     1     -23.732  11.392 -69.793  1.00  0.00     0.100 C 
BRANCH  30  34
ATOM     34  C   UNL     1     -21.936   9.354 -68.206  1.00  0.00     0.087 C 
BRANCH  34  35
ATOM     35  C   UNL     1     -20.977  10.270 -68.897  1.00  0.00     0.031 CG0
ATOM     36  G   UNL     1     -21.448  11.686 -69.024  1.00  0.00     0.000 G0
ENDBRANCH  34  35
ENDBRANCH  30  34
BRANCH  31  37
ATOM     37  C   UNL     1     -21.477  11.699 -69.005  1.00  0.00     0.086 CG0
ATOM     38  G   UNL     1     -20.989  10.286 -68.904  1.00  0.00     0.000 G0
ENDBRANCH  31  37
ENDBRANCH  25  28
ENDBRANCH  23  24
ENDBRANCH   5  23
TORSDOF 6
ENDMDL
MODEL 2
REMARK VINA RESULT:   -13.202      8.038     11.439
REMARK INTER + INTRA:          -1.929
REMARK INTER:                  -5.160
REMARK INTRA:                   3.231
REMARK UNBOUND:                20.534
REMARK SMILES O=C(NCc1cccc(CNC(=O)[C@H]2CN3CCCN2CC3)c1)[C@H]1CN2CCCN1CC2
REMARK SMILES IDX 5 1 6 2 7 3 8 4 9 5 23 6 4 7 3 8 1 9 2 10 24 12 25 13 30 14
REMARK SMILES IDX 26 15 31 16 32 17 29 18 27 20 28 21 10 23 11 24 12 25 13 27
REMARK SMILES IDX 14 28 15 29 20 30 16 31 21 32 22 33 19 34 18 35 17 37
REMARK H PARENT 3 11 11 26
REMARK Flexibility Score: 180.00
ROOT
ATOM      1  C   UNL     1     -25.460  23.557 -63.080  1.00  0.00    -0.028 A 
ATOM      2  C   UNL     1     -26.745  23.438 -62.562  1.00  0.00     0.005 A 
ATOM      3  C   UNL     1     -27.799  22.966 -63.297  1.00  0.00     0.001 A 
ATOM      4  C   UNL     1     -27.594  22.729 -64.646  1.00  0.00     0.005 A 
ATOM      5  C   UNL     1     -26.374  23.000 -65.248  1.00  0.00    -0.028 A 
ATOM      6  C   UNL     1     -25.297  23.144 -64.389  1.00  0.00     0.011 A 
ENDROOT
BRANCH   1   7
ATOM      7  C   UNL     1     -24.446  24.422 -62.417  1.00  0.00     0.151 C 
BRANCH   7   8
ATOM      8  N   UNL     1     -23.139  23.884 -62.675  1.00  0.00    -0.351 N 
ATOM      9  O   UNL     1     -22.134  25.467 -63.281  1.00  0.00    -0.273 OA
ATOM     10  C   UNL     1     -22.178  24.677 -63.395  1.00  0.00     0.238 C 
ATOM     11  H   UNL     1     -22.904  22.981 -62.363  1.00  0.00     0.163 HD
BRANCH  10  12
ATOM     12  C   UNL     1     -21.540  23.913 -64.674  1.00  0.00     0.160 C 
ATOM     13  C   UNL     1     -20.657  25.225 -65.102  1.00  0.00     0.113 C 
ATOM     14  N   UNL     1     -20.411  23.283 -63.785  1.00  0.00    -0.290 NA
ATOM     15  N   UNL     1     -19.323  24.861 -65.315  1.00  0.00    -0.300 NA
ATOM     16  C   UNL     1     -19.715  24.269 -63.093  1.00  0.00     0.101 C 
ATOM     17  C   UNL     1     -18.644  24.818 -64.033  1.00  0.00     0.100 C 
BRANCH  14  18
ATOM     18  C   UNL     1     -19.762  22.278 -64.490  1.00  0.00     0.087 CG1
ATOM     19  G   UNL     1     -19.806  22.540 -65.990  1.00  0.00     0.000 G1
ENDBRANCH  14  18
BRANCH  15  20
ATOM     20  C   UNL     1     -19.023  23.799 -66.194  1.00  0.00     0.086 C 
BRANCH  20  21
ATOM     21  C   UNL     1     -19.799  22.535 -65.983  1.00  0.00     0.031 CG1
ATOM     22  G   UNL     1     -19.734  22.272 -64.483  1.00  0.00     0.000 G1
ENDBRANCH  20  21
ENDBRANCH  15  20
ENDBRANCH  10  12
ENDBRANCH   7   8
ENDBRANCH   1   7
BRANCH   5  23
ATOM     23  C   UNL     1     -26.232  23.214 -66.715  1.00  0.00     0.151 C 
BRANCH  23  24
ATOM     24  N   UNL     1     -25.093  22.422 -67.137  1.00  0.00    -0.351 N 
ATOM     25  C   UNL     1     -25.280  21.191 -67.707  1.00  0.00     0.238 C 
ATOM     26  H   UNL     1     -24.181  22.771 -67.014  1.00  0.00     0.163 HD
ATOM     27  O   UNL     1     -26.447  20.853 -68.070  1.00  0.00    -0.273 OA
BRANCH  25  28
ATOM     28  C   UNL     1     -24.162  20.469 -68.611  1.00  0.00     0.160 C 
ATOM     29  C   UNL     1     -22.887  20.897 -67.666  1.00  0.00     0.113 C 
ATOM     30  N   UNL     1     -24.370  19.104 -67.853  1.00  0.00    -0.290 NA
ATOM     31  N   UNL     1     -21.935  19.842 -67.720  1.00  0.00    -0.300 NA
ATOM     32  C   UNL     1     -23.456  18.166 -68.398  1.00  0.00     0.101 C 
ATOM     33  C   UNL     1     -22.186  18.890 -68.769  1.00  0.00     0.100 C 
BRANCH  30  34
ATOM     34  C   UNL     1     -24.269  19.356 -66.459  1.00  0.00     0.087 C 
BRANCH  34  35
ATOM     35  C   UNL     1     -23.058  18.785 -65.792  1.00  0.00     0.031 CG0
ATOM     36  G   UNL     1     -21.755  19.207 -66.398  1.00  0.00     0.000 G0
ENDBRANCH  34  35
ENDBRANCH  30  34
BRANCH  31  37
ATOM     37  C   UNL     1     -21.753  19.217 -66.423  1.00  0.00     0.086 CG0
ATOM     38  G   UNL     1     -23.049  18.804 -65.794  1.00  0.00     0.000 G0
ENDBRANCH  31  37
ENDBRANCH  25  28
ENDBRANCH  23  24
ENDBRANCH   5  23
TORSDOF 6
ENDMDL
MODEL 3
REMARK VINA RESULT:   -13.084      2.073      2.727
REMARK INTER + INTRA:          -1.728
REMARK INTER:                  -4.898
REMARK INTRA:                   3.170
REMARK UNBOUND:                20.534
REMARK SMILES O=C(NCc1cccc(CNC(=O)[C@H]2CN3CCCN2CC3)c1)[C@H]1CN2CCCN1CC2
REMARK SMILES IDX 5 1 6 2 7 3 8 4 9 5 23 6 4 7 3 8 1 9 2 10 24 12 25 13 30 14
REMARK SMILES IDX 26 15 31 16 32 17 29 18 27 20 28 21 10 23 11 24 12 25 13 27
REMARK SMILES IDX 14 28 15 29 20 30 16 31 21 32 22 33 19 34 18 35 17 37
REMARK H PARENT 3 11 11 26
REMARK Flexibility Score: 180.00
ROOT
ATOM      1  C   UNL     1     -26.176   9.963 -63.419  1.00  0.00    -0.028 A 
ATOM      2  C   UNL     1     -26.560   8.847 -62.685  1.00  0.00     0.005 A 
ATOM      3  C   UNL     1     -25.687   7.848 -62.345  1.00  0.00     0.001 A 
ATOM      4  C   UNL     1     -24.408   7.897 -62.874  1.00  0.00     0.005 A 
ATOM      5  C   UNL     1     -24.031   8.901 -63.756  1.00  0.00    -0.028 A 
ATOM      6  C   UNL     1     -24.842  10.024 -63.773  1.00  0.00     0.011 A 
ENDROOT
BRANCH   1   7
ATOM      7  C   UNL     1     -27.190  10.812 -64.104  1.00  0.00     0.151 C 
BRANCH   7   8
ATOM      8  N   UNL     1     -26.683  12.153 -64.199  1.00  0.00    -0.351 N 
ATOM      9  O   UNL     1     -27.838  12.952 -65.581  1.00  0.00    -0.273 OA
ATOM     10  C   UNL     1     -27.090  12.986 -65.300  1.00  0.00     0.238 C 
ATOM     11  H   UNL     1     -26.062  12.498 -63.518  1.00  0.00     0.163 HD
BRANCH  10  12
ATOM     12  C   UNL     1     -25.846  13.633 -66.113  1.00  0.00     0.160 C 
ATOM     13  C   UNL     1     -26.845  14.467 -67.109  1.00  0.00     0.113 C 
ATOM     14  N   UNL     1     -25.712  14.792 -65.065  1.00  0.00    -0.290 NA
ATOM     15  N   UNL     1     -26.455  15.810 -67.169  1.00  0.00    -0.300 NA
ATOM     16  C   UNL     1     -26.920  15.465 -64.910  1.00  0.00     0.101 C 
ATOM     17  C   UNL     1     -27.011  16.505 -66.023  1.00  0.00     0.100 C 
BRANCH  14  18
ATOM     18  C   UNL     1     -24.512  15.465 -65.258  1.00  0.00     0.087 CG1
ATOM     19  G   UNL     1     -24.073  15.401 -66.716  1.00  0.00     0.000 G1
ENDBRANCH  14  18
BRANCH  15  20
ATOM     20  C   UNL     1     -25.119  16.133 -67.483  1.00  0.00     0.086 C 
BRANCH  20  21
ATOM     21  C   UNL     1     -24.068  15.407 -66.699  1.00  0.00     0.031 CG1
ATOM     22  G   UNL     1     -24.534  15.472 -65.250  1.00  0.00     0.000 G1
ENDBRANCH  20  21
ENDBRANCH  15  20
ENDBRANCH  10  12
ENDBRANCH   7   8
ENDBRANCH   1   7
BRANCH   5  23
ATOM     23  C   UNL     1     -22.883   8.756 -64.693  1.00  0.00     0.151 C 
BRANCH  23  24
ATOM     24  N   UNL     1     -23.444   8.378 -65.975  1.00  0.00    -0.351 N 
ATOM     25  C   UNL     1     -23.498   9.285 -67.000  1.00  0.00     0.238 C 
ATOM     26  H   UNL     1     -23.788   7.465 -66.110  1.00  0.00     0.163 HD
ATOM     27  O   UNL     1     -22.852  10.370 -66.894  1.00  0.00    -0.273 OA
BRANCH  25  28
ATOM     28  C   UNL     1     -23.651   8.851 -68.542  1.00  0.00     0.160 C 
ATOM     29  C   UNL     1     -24.734   7.646 -68.266  1.00  0.00     0.113 C 
ATOM     30  N   UNL     1     -24.780   9.923 -68.776  1.00  0.00    -0.290 NA
ATOM     31  N   UNL     1     -25.617   7.594 -69.380  1.00  0.00    -0.300 NA
ATOM     32  C   UNL     1     -25.217   9.801 -70.121  1.00  0.00     0.101 C 
ATOM     33  C   UNL     1     -25.157   8.347 -70.517  1.00  0.00     0.100 C 
BRANCH  30  34
ATOM     34  C   UNL     1     -25.766   9.750 -67.768  1.00  0.00     0.087 C 
BRANCH  34  35
ATOM     35  C   UNL     1     -27.079   9.213 -68.242  1.00  0.00     0.031 CG0
ATOM     36  G   UNL     1     -26.986   7.935 -69.018  1.00  0.00     0.000 G0
ENDBRANCH  34  35
ENDBRANCH  30  34
BRANCH  31  37
ATOM     37  C   UNL     1     -26.978   7.918 -69.001  1.00  0.00     0.086 CG0
ATOM     38  G   UNL     1     -27.074   9.196 -68.225  1.00  0.00     0.000 G0
ENDBRANCH  31  37
ENDBRANCH  25  28
ENDBRANCH  23  24
ENDBRANCH   5  23
TORSDOF 6
ENDMDL
MODEL 4
REMARK VINA RESULT:   -13.069      4.842      7.250
REMARK INTER + INTRA:          -1.703
REMARK INTER:                  -5.204
REMARK INTRA:                   3.501
REMARK UNBOUND:                20.534
REMARK SMILES O=C(NCc1cccc(CNC(=O)[C@H]2CN3CCCN2CC3)c1)[C@H]1CN2CCCN1CC2
REMARK SMILES IDX 5 1 6 2 7 3 8 4 9 5 23 6 4 7 3 8 1 9 2 10 24 12 25 13 30 14
REMARK SMILES IDX 26 15 31 16 32 17 29 18 27 20 28 21 10 23 11 24 12 25 13 27
REMARK SMILES IDX 14 28 15 29 20 30 16 31 21 32 22 33 19 34 18 35 17 37
REMARK H PARENT 3 11 11 26
REMARK Flexibility Score: 180.00
ROOT
ATOM      1  C   UNL     1     -24.221  15.837 -65.454  1.00  0.00    -0.028 A 
ATOM      2  C   UNL     1     -25.490  16.373 -65.636  1.00  0.00     0.005 A 
ATOM      3  C   UNL     1     -26.627  15.610 -65.620  1.00  0.00     0.001 A 
ATOM      4  C   UNL     1     -26.482  14.233 -65.555  1.00  0.00     0.005 A 
ATOM      5  C   UNL     1     -25.227  13.640 -65.550  1.00  0.00    -0.028 A 
ATOM      6  C   UNL     1     -24.168  14.474 -65.230  1.00  0.00     0.011 A 
ENDROOT
BRANCH   1   7
ATOM      7  C   UNL     1     -23.005  16.593 -65.864  1.00  0.00     0.151 C 
BRANCH   7   8
ATOM      8  N   UNL     1     -23.299  17.999 -65.820  1.00  0.00    -0.351 N 
ATOM      9  O   UNL     1     -21.569  18.814 -66.298  1.00  0.00    -0.273 OA
ATOM     10  C   UNL     1     -22.217  18.948 -65.849  1.00  0.00     0.238 C 
ATOM     11  H   UNL     1     -24.231  18.310 -65.771  1.00  0.00     0.163 HD
BRANCH  10  12
ATOM     12  C   UNL     1     -22.268  20.019 -64.634  1.00  0.00     0.160 C 
ATOM     13  C   UNL     1     -21.029  20.889 -65.261  1.00  0.00     0.113 C 
ATOM     14  N   UNL     1     -23.386  20.847 -65.359  1.00  0.00    -0.290 NA
ATOM     15  N   UNL     1     -21.371  22.245 -65.318  1.00  0.00    -0.300 NA
ATOM     16  C   UNL     1     -22.986  21.207 -66.642  1.00  0.00     0.101 C 
ATOM     17  C   UNL     1     -22.148  22.477 -66.522  1.00  0.00     0.100 C 
BRANCH  14  18
ATOM     18  C   UNL     1     -23.941  21.764 -64.475  1.00  0.00     0.087 CG1
ATOM     19  G   UNL     1     -22.940  22.169 -63.400  1.00  0.00     0.000 G1
ENDBRANCH  14  18
BRANCH  15  20
ATOM     20  C   UNL     1     -21.845  22.892 -64.158  1.00  0.00     0.086 C 
BRANCH  20  21
ATOM     21  C   UNL     1     -22.936  22.184 -63.412  1.00  0.00     0.031 CG1
ATOM     22  G   UNL     1     -23.944  21.771 -64.478  1.00  0.00     0.000 G1
ENDBRANCH  20  21
ENDBRANCH  15  20
ENDBRANCH  10  12
ENDBRANCH   7   8
ENDBRANCH   1   7
BRANCH   5  23
ATOM     23  C   UNL     1     -25.008  12.222 -65.947  1.00  0.00     0.151 C 
BRANCH  23  24
ATOM     24  N   UNL     1     -25.897  11.424 -65.126  1.00  0.00    -0.351 N 
ATOM     25  C   UNL     1     -25.395  10.643 -64.120  1.00  0.00     0.238 C 
ATOM     26  H   UNL     1     -26.868  11.444 -65.292  1.00  0.00     0.163 HD
ATOM     27  O   UNL     1     -24.187  10.800 -63.767  1.00  0.00    -0.273 OA
BRANCH  25  28
ATOM     28  C   UNL     1     -26.292  10.115 -62.893  1.00  0.00     0.160 C 
ATOM     29  C   UNL     1     -27.672   9.932 -63.768  1.00  0.00     0.113 C 
ATOM     30  N   UNL     1     -25.838   8.629 -63.146  1.00  0.00    -0.290 NA
ATOM     31  N   UNL     1     -28.377   8.818 -63.235  1.00  0.00    -0.300 NA
ATOM     32  C   UNL     1     -26.508   7.808 -62.201  1.00  0.00     0.101 C 
ATOM     33  C   UNL     1     -27.883   8.379 -61.957  1.00  0.00     0.100 C 
BRANCH  30  34
ATOM     34  C   UNL     1     -26.056   8.329 -64.517  1.00  0.00     0.087 C 
BRANCH  34  35
ATOM     35  C   UNL     1     -27.154   7.352 -64.792  1.00  0.00     0.031 CG0
ATOM     36  G   UNL     1     -28.476   7.713 -64.186  1.00  0.00     0.000 G0
ENDBRANCH  34  35
ENDBRANCH  30  34
BRANCH  31  37
ATOM     37  C   UNL     1     -28.484   7.740 -64.199  1.00  0.00     0.086 CG0
ATOM     38  G   UNL     1     -27.161   7.358 -64.789  1.00  0.00     0.000 G0
ENDBRANCH  31  37
ENDBRANCH  25  28
ENDBRANCH  23  24
ENDBRANCH   5  23
TORSDOF 6
ENDMDL
MODEL 5
REMARK VINA RESULT:   -12.970      8.988     10.959
REMARK INTER + INTRA:          -1.535
REMARK INTER:                  -4.821
REMARK INTRA:                   3.286
REMARK UNBOUND:                20.534
REMARK SMILES O=C(NCc1cccc(CNC(=O)[C@H]2CN3CCCN2CC3)c1)[C@H]1CN2CCCN1CC2
REMARK SMILES IDX 5 1 6 2 7 3 8 4 9 5 23 6 4 7 3 8 1 9 2 10 24 12 25 13 30 14
REMARK SMILES IDX 26 15 31 16 32 17 29 18 27 20 28 21 10 23 11 24 12 25 13 27
REMARK SMILES IDX 14 28 15 29 20 30 16 31 21 32 22 33 19 34 18 35 17 37
REMARK H PARENT 3 11 11 26
REMARK Flexibility Score: 180.00
ROOT
ATOM      1  C   UNL     1     -17.343   3.462 -70.329  1.00  0.00    -0.028 A 
ATOM      2  C   UNL     1     -16.344   2.509 -70.492  1.00  0.00     0.005 A 
ATOM      3  C   UNL     1     -16.491   1.206 -70.097  1.00  0.00     0.001 A 
ATOM      4  C   UNL     1     -17.632   0.869 -69.387  1.00  0.00     0.005 A 
ATOM      5  C   UNL     1     -18.577   1.826 -69.046  1.00  0.00    -0.028 A 
ATOM      6  C   UNL     1     -18.519   3.012 -69.760  1.00  0.00     0.011 A 
ENDROOT
BRANCH   1   7
ATOM      7  C   UNL     1     -17.029   4.916 -70.391  1.00  0.00     0.151 C 
BRANCH   7   8
ATOM      8  N   UNL     1     -17.552   5.451 -71.617  1.00  0.00    -0.351 N 
ATOM      9  O   UNL     1     -17.779   7.362 -71.191  1.00  0.00    -0.273 OA
ATOM     10  C   UNL     1     -18.107   6.779 -71.629  1.00  0.00     0.238 C 
ATOM     11  H   UNL     1     -17.532   4.914 -72.441  1.00  0.00     0.163 HD
BRANCH  10  12
ATOM     12  C   UNL     1     -19.605   6.846 -72.245  1.00  0.00     0.160 C 
ATOM     13  C   UNL     1     -19.383   8.375 -72.792  1.00  0.00     0.113 C 
ATOM     14  N   UNL     1     -19.131   6.162 -73.575  1.00  0.00    -0.290 NA
ATOM     15  N   UNL     1     -19.762   8.465 -74.136  1.00  0.00    -0.300 NA
ATOM     16  C   UNL     1     -18.069   6.861 -74.142  1.00  0.00     0.101 C 
ATOM     17  C   UNL     1     -18.659   8.006 -74.961  1.00  0.00     0.100 C 
BRANCH  14  18
ATOM     18  C   UNL     1     -20.235   5.766 -74.319  1.00  0.00     0.087 CG1
ATOM     19  G   UNL     1     -21.434   6.665 -74.050  1.00  0.00     0.000 G1
ENDBRANCH  14  18
BRANCH  15  20
ATOM     20  C   UNL     1     -21.040   8.017 -74.530  1.00  0.00     0.086 C 
BRANCH  20  21
ATOM     21  C   UNL     1     -21.428   6.648 -74.061  1.00  0.00     0.031 CG1
ATOM     22  G   UNL     1     -20.210   5.774 -74.331  1.00  0.00     0.000 G1
ENDBRANCH  20  21
ENDBRANCH  15  20
ENDBRANCH  10  12
ENDBRANCH   7   8
ENDBRANCH   1   7
BRANCH   5  23
ATOM     23  C   UNL     1     -19.542   1.639 -67.927  1.00  0.00     0.151 C 
BRANCH  23  24
ATOM     24  N   UNL     1     -20.736   2.380 -68.286  1.00  0.00    -0.351 N 
ATOM     25  C   UNL     1     -21.858   1.719 -68.708  1.00  0.00     0.238 C 
ATOM     26  H   UNL     1     -20.740   3.362 -68.224  1.00  0.00     0.163 HD
ATOM     27  O   UNL     1     -21.920   0.461 -68.565  1.00  0.00    -0.273 OA
BRANCH  25  28
ATOM     28  C   UNL     1     -23.325   2.379 -68.672  1.00  0.00     0.160 C 
ATOM     29  C   UNL     1     -22.833   3.895 -69.072  1.00  0.00     0.113 C 
ATOM     30  N   UNL     1     -23.588   1.980 -70.172  1.00  0.00    -0.290 NA
ATOM     31  N   UNL     1     -23.861   4.493 -69.851  1.00  0.00    -0.300 NA
ATOM     32  C   UNL     1     -24.873   2.468 -70.528  1.00  0.00     0.101 C 
ATOM     33  C   UNL     1     -25.107   3.774 -69.811  1.00  0.00     0.100 C 
BRANCH  30  34
ATOM     34  C   UNL     1     -22.493   2.444 -70.949  1.00  0.00     0.087 C 
BRANCH  34  35
ATOM     35  C   UNL     1     -22.801   3.578 -71.875  1.00  0.00     0.031 CG0
ATOM     36  G   UNL     1     -23.418   4.773 -71.215  1.00  0.00     0.000 G0
ENDBRANCH  34  35
ENDBRANCH  30  34
BRANCH  31  37
ATOM     37  C   UNL     1     -23.415   4.775 -71.201  1.00  0.00     0.086 CG0
ATOM     38  G   UNL     1     -22.791   3.586 -71.865  1.00  0.00     0.000 G0
ENDBRANCH  31  37
ENDBRANCH  25  28
ENDBRANCH  23  24
ENDBRANCH   5  23
TORSDOF 6
ENDMDL
MODEL 6
REMARK VINA RESULT:   -12.968      3.592      6.868
REMARK INTER + INTRA:          -1.531
REMARK INTER:                  -4.119
REMARK INTRA:                   2.588
REMARK UNBOUND:                20.534
REMARK SMILES O=C(NCc1cccc(CNC(=O)[C@H]2CN3CCCN2CC3)c1)[C@H]1CN2CCCN1CC2
REMARK SMILES IDX 5 1 6 2 7 3 8 4 9 5 23 6 4 7 3 8 1 9 2 10 24 12 25 13 30 14
REMARK SMILES IDX 26 15 31 16 32 17 29 18 27 20 28 21 10 23 11 24 12 25 13 27
REMARK SMILES IDX 14 28 15 29 20 30 16 31 21 32 22 33 19 34 18 35 17 37
REMARK H PARENT 3 11 11 26
REMARK Flexibility Score: 180.00
ROOT
ATOM      1  C   UNL     1     -25.271   5.191 -63.715  1.00  0.00    -0.028 A 
ATOM      2  C   UNL     1     -24.265   6.084 -63.364  1.00  0.00     0.005 A 
ATOM      3  C   UNL     1     -24.412   7.013 -62.369  1.00  0.00     0.001 A 
ATOM      4  C   UNL     1     -25.664   7.148 -61.790  1.00  0.00     0.005 A 
ATOM      5  C   UNL     1     -26.746   6.400 -62.230  1.00  0.00    -0.028 A 
ATOM      6  C   UNL     1     -26.437   5.277 -62.980  1.00  0.00     0.011 A 
ENDROOT
BRANCH   1   7
ATOM      7  C   UNL     1     -25.241   4.483 -65.025  1.00  0.00     0.151 C 
BRANCH   7   8
ATOM      8  N   UNL     1     -24.783   5.397 -66.035  1.00  0.00    -0.351 N 
ATOM      9  O   UNL     1     -26.463   6.205 -66.675  1.00  0.00    -0.273 OA
ATOM     10  C   UNL     1     -25.737   5.991 -66.934  1.00  0.00     0.238 C 
ATOM     11  H   UNL     1     -23.827   5.614 -66.111  1.00  0.00     0.163 HD
BRANCH  10  12
ATOM     12  C   UNL     1     -25.357   5.796 -68.497  1.00  0.00     0.160 C 
ATOM     13  C   UNL     1     -26.204   7.128 -68.938  1.00  0.00     0.113 C 
ATOM     14  N   UNL     1     -24.002   6.564 -68.304  1.00  0.00    -0.290 NA
ATOM     15  N   UNL     1     -25.416   7.955 -69.746  1.00  0.00    -0.300 NA
ATOM     16  C   UNL     1     -24.218   7.821 -67.750  1.00  0.00     0.101 C 
ATOM     17  C   UNL     1     -24.573   8.771 -68.891  1.00  0.00     0.100 C 
BRANCH  14  18
ATOM     18  C   UNL     1     -23.192   6.377 -69.417  1.00  0.00     0.087 CG1
ATOM     19  G   UNL     1     -24.025   6.152 -70.673  1.00  0.00     0.000 G1
ENDBRANCH  14  18
BRANCH  15  20
ATOM     20  C   UNL     1     -24.782   7.417 -70.885  1.00  0.00     0.086 C 
BRANCH  20  21
ATOM     21  C   UNL     1     -24.008   6.152 -70.667  1.00  0.00     0.031 CG1
ATOM     22  G   UNL     1     -23.195   6.396 -69.402  1.00  0.00     0.000 G1
ENDBRANCH  20  21
ENDBRANCH  15  20
ENDBRANCH  10  12
ENDBRANCH   7   8
ENDBRANCH   1   7
BRANCH   5  23
ATOM     23  C   UNL     1     -28.157   6.814 -61.994  1.00  0.00     0.151 C 
BRANCH  23  24
ATOM     24  N   UNL     1     -28.307   8.123 -62.599  1.00  0.00    -0.351 N 
ATOM     25  C   UNL     1     -28.535   8.241 -63.943  1.00  0.00     0.238 C 
ATOM     26  H   UNL     1     -28.247   8.931 -62.040  1.00  0.00     0.163 HD
ATOM     27  O   UNL     1     -28.839   7.205 -64.608  1.00  0.00    -0.273 OA
BRANCH  25  28
ATOM     28  C   UNL     1     -29.169   9.562 -64.609  1.00  0.00     0.160 C 
ATOM     29  C   UNL     1     -28.257  10.629 -63.754  1.00  0.00     0.113 C 
ATOM     30  N   UNL     1     -28.137   9.509 -65.798  1.00  0.00    -0.290 NA
ATOM     31  N   UNL     1     -28.001  11.749 -64.592  1.00  0.00    -0.300 NA
ATOM     32  C   UNL     1     -28.388  10.627 -66.635  1.00  0.00     0.101 C 
ATOM     33  C   UNL     1     -28.822  11.786 -65.773  1.00  0.00     0.100 C 
BRANCH  30  34
ATOM     34  C   UNL     1     -26.833   9.408 -65.245  1.00  0.00     0.087 C 
BRANCH  34  35
ATOM     35  C   UNL     1     -25.970  10.617 -65.415  1.00  0.00     0.031 CG0
ATOM     36  G   UNL     1     -26.569  11.889 -64.897  1.00  0.00     0.000 G0
ENDBRANCH  34  35
ENDBRANCH  30  34
BRANCH  31  37
ATOM     37  C   UNL     1     -26.588  11.889 -64.883  1.00  0.00     0.086 CG0
ATOM     38  G   UNL     1     -25.976  10.623 -65.402  1.00  0.00     0.000 G0
ENDBRANCH  31  37
ENDBRANCH  25  28
ENDBRANCH  23  24
ENDBRANCH   5  23
TORSDOF 6
ENDMDL
MODEL 7
REMARK VINA RESULT:   -12.951     13.770     18.250
REMARK INTER + INTRA:          -1.503
REMARK INTER:                  -4.309
REMARK INTRA:                   2.806
REMARK UNBOUND:                20.534
REMARK SMILES O=C(NCc1cccc(CNC(=O)[C@H]2CN3CCCN2CC3)c1)[C@H]1CN2CCCN1CC2
REMARK SMILES IDX 5 1 6 2 7 3 8 4 9 5 23 6 4 7 3 8 1 9 2 10 24 12 25 13 30 14
REMARK SMILES IDX 26 15 31 16 32 17 29 18 27 20 28 21 10 23 11 24 12 25 13 27
REMARK SMILES IDX 14 28 15 29 20 30 16 31 21 32 22 33 19 34 18 35 17 37
REMARK H PARENT 3 11 11 26
REMARK Flexibility Score: 180.00
ROOT
ATOM      1  C   UNL     1     -14.002   1.481 -79.495  1.00  0.00    -0.028 A 
ATOM      2  C   UNL     1     -15.054   2.286 -79.918  1.00  0.00     0.005 A 
ATOM      3  C   UNL     1     -14.981   3.653 -79.933  1.00  0.00     0.001 A 
ATOM      4  C   UNL     1     -13.862   4.249 -79.375  1.00  0.00     0.005 A 
ATOM      5  C   UNL     1     -12.863   3.491 -78.780  1.00  0.00    -0.028 A 
ATOM      6  C   UNL     1     -12.853   2.145 -79.107  1.00  0.00     0.011 A 
ENDROOT
BRANCH   1   7
ATOM      7  C   UNL     1     -14.232   0.060 -79.115  1.00  0.00     0.151 C 
BRANCH   7   8
ATOM      8  N   UNL     1     -14.763   0.018 -77.781  1.00  0.00    -0.351 N 
ATOM      9  O   UNL     1     -13.472  -1.135 -76.840  1.00  0.00    -0.273 OA
ATOM     10  C   UNL     1     -14.249  -0.947 -76.845  1.00  0.00     0.238 C 
ATOM     11  H   UNL     1     -15.473   0.644 -77.510  1.00  0.00     0.163 HD
BRANCH  10  12
ATOM     12  C   UNL     1     -15.402  -1.851 -76.153  1.00  0.00     0.160 C 
ATOM     13  C   UNL     1     -14.410  -2.296 -74.927  1.00  0.00     0.113 C 
ATOM     14  N   UNL     1     -15.984  -0.603 -75.401  1.00  0.00    -0.290 NA
ATOM     15  N   UNL     1     -15.044  -2.094 -73.696  1.00  0.00    -0.300 NA
ATOM     16  C   UNL     1     -14.997   0.032 -74.653  1.00  0.00     0.101 C 
ATOM     17  C   UNL     1     -14.891  -0.702 -73.318  1.00  0.00     0.100 C 
BRANCH  14  18
ATOM     18  C   UNL     1     -17.229  -0.913 -74.868  1.00  0.00     0.087 CG1
ATOM     19  G   UNL     1     -17.335  -2.397 -74.540  1.00  0.00     0.000 G1
ENDBRANCH  14  18
BRANCH  15  20
ATOM     20  C   UNL     1     -16.324  -2.645 -73.474  1.00  0.00     0.086 C 
BRANCH  20  21
ATOM     21  C   UNL     1     -17.344  -2.382 -74.540  1.00  0.00     0.031 CG1
ATOM     22  G   UNL     1     -17.215  -0.898 -74.858  1.00  0.00     0.000 G1
ENDBRANCH  20  21
ENDBRANCH  15  20
ENDBRANCH  10  12
ENDBRANCH   7   8
ENDBRANCH   1   7
BRANCH   5  23
ATOM     23  C   UNL     1     -11.911   4.057 -77.784  1.00  0.00     0.151 C 
BRANCH  23  24
ATOM     24  N   UNL     1     -12.718   4.632 -76.726  1.00  0.00    -0.351 N 
ATOM     25  C   UNL     1     -13.028   3.894 -75.615  1.00  0.00     0.238 C 
ATOM     26  H   UNL     1     -13.044   5.557 -76.806  1.00  0.00     0.163 HD
ATOM     27  O   UNL     1     -12.419   2.800 -75.415  1.00  0.00    -0.273 OA
BRANCH  25  28
ATOM     28  C   UNL     1     -13.489   4.561 -74.225  1.00  0.00     0.160 C 
ATOM     29  C   UNL     1     -14.286   5.827 -74.908  1.00  0.00     0.113 C 
ATOM     30  N   UNL     1     -14.784   3.667 -74.177  1.00  0.00    -0.290 NA
ATOM     31  N   UNL     1     -15.397   6.138 -74.076  1.00  0.00    -0.300 NA
ATOM     32  C   UNL     1     -15.515   4.030 -73.015  1.00  0.00     0.101 C 
ATOM     33  C   UNL     1     -15.344   5.511 -72.783  1.00  0.00     0.100 C 
BRANCH  30  34
ATOM     34  C   UNL     1     -15.457   3.801 -75.421  1.00  0.00     0.087 C 
BRANCH  34  35
ATOM     35  C   UNL     1     -16.756   4.541 -75.369  1.00  0.00     0.031 CG0
ATOM     36  G   UNL     1     -16.670   5.910 -74.765  1.00  0.00     0.000 G0
ENDBRANCH  34  35
ENDBRANCH  30  34
BRANCH  31  37
ATOM     37  C   UNL     1     -16.656   5.916 -74.761  1.00  0.00     0.086 CG0
ATOM     38  G   UNL     1     -16.749   4.552 -75.374  1.00  0.00     0.000 G0
ENDBRANCH  31  37
ENDBRANCH  25  28
ENDBRANCH  23  24
ENDBRANCH   5  23
TORSDOF 6
ENDMDL
MODEL 8
REMARK VINA RESULT:   -12.936      3.912      6.989
REMARK INTER + INTRA:          -1.477
REMARK INTER:                  -4.935
REMARK INTRA:                   3.458
REMARK UNBOUND:                20.534
REMARK SMILES O=C(NCc1cccc(CNC(=O)[C@H]2CN3CCCN2CC3)c1)[C@H]1CN2CCCN1CC2
REMARK SMILES IDX 5 1 6 2 7 3 8 4 9 5 23 6 4 7 3 8 1 9 2 10 24 12 25 13 30 14
REMARK SMILES IDX 26 15 31 16 32 17 29 18 27 20 28 21 10 23 11 24 12 25 13 27
REMARK SMILES IDX 14 28 15 29 20 30 16 31 21 32 22 33 19 34 18 35 17 37
REMARK H PARENT 3 11 11 26
REMARK Flexibility Score: 180.00
ROOT
ATOM      1  C   UNL     1     -21.739  11.245 -68.257  1.00  0.00    -0.028 A 
ATOM      2  C   UNL     1     -21.375   9.921 -68.044  1.00  0.00     0.005 A 
ATOM      3  C   UNL     1     -20.663   9.191 -68.958  1.00  0.00     0.001 A 
ATOM      4  C   UNL     1     -20.420   9.764 -70.196  1.00  0.00     0.005 A 
ATOM      5  C   UNL     1     -20.917  11.019 -70.519  1.00  0.00    -0.028 A 
ATOM      6  C   UNL     1     -21.317  11.802 -69.449  1.00  0.00     0.011 A 
ENDROOT
BRANCH   1   7
ATOM      7  C   UNL     1     -22.823  11.878 -67.456  1.00  0.00     0.151 C 
BRANCH   7   8
ATOM      8  N   UNL     1     -23.647  10.845 -66.895  1.00  0.00    -0.351 N 
ATOM      9  O   UNL     1     -24.619  11.797 -65.469  1.00  0.00    -0.273 OA
ATOM     10  C   UNL     1     -24.317  11.077 -65.642  1.00  0.00     0.238 C 
ATOM     11  H   UNL     1     -23.753   9.985 -67.362  1.00  0.00     0.163 HD
BRANCH  10  12
ATOM     12  C   UNL     1     -24.032   9.928 -64.536  1.00  0.00     0.160 C 
ATOM     13  C   UNL     1     -25.216  10.488 -63.551  1.00  0.00     0.113 C 
ATOM     14  N   UNL     1     -24.962   8.914 -65.291  1.00  0.00    -0.290 NA
ATOM     15  N   UNL     1     -26.054   9.439 -63.159  1.00  0.00    -0.300 NA
ATOM     16  C   UNL     1     -26.230   9.453 -65.484  1.00  0.00     0.101 C 
ATOM     17  C   UNL     1     -27.031   9.209 -64.207  1.00  0.00     0.100 C 
BRANCH  14  18
ATOM     18  C   UNL     1     -24.772   7.635 -64.786  1.00  0.00     0.087 CG1
ATOM     19  G   UNL     1     -24.341   7.677 -63.325  1.00  0.00     0.000 G1
ENDBRANCH  14  18
BRANCH  15  20
ATOM     20  C   UNL     1     -25.494   8.277 -62.588  1.00  0.00     0.086 C 
BRANCH  20  21
ATOM     21  C   UNL     1     -24.338   7.675 -63.328  1.00  0.00     0.031 CG1
ATOM     22  G   UNL     1     -24.775   7.637 -64.787  1.00  0.00     0.000 G1
ENDBRANCH  20  21
ENDBRANCH  15  20
ENDBRANCH  10  12
ENDBRANCH   7   8
ENDBRANCH   1   7
BRANCH   5  23
ATOM     23  C   UNL     1     -21.095  11.474 -71.926  1.00  0.00     0.151 C 
BRANCH  23  24
ATOM     24  N   UNL     1     -21.214  10.275 -72.732  1.00  0.00    -0.351 N 
ATOM     25  C   UNL     1     -22.446   9.743 -73.001  1.00  0.00     0.238 C 
ATOM     26  H   UNL     1     -20.405   9.842 -73.090  1.00  0.00     0.163 HD
ATOM     27  O   UNL     1     -23.481  10.426 -72.737  1.00  0.00    -0.273 OA
BRANCH  25  28
ATOM     28  C   UNL     1     -22.715   8.738 -74.229  1.00  0.00     0.160 C 
ATOM     29  C   UNL     1     -21.223   8.048 -74.205  1.00  0.00     0.113 C 
ATOM     30  N   UNL     1     -23.322   7.652 -73.264  1.00  0.00    -0.290 NA
ATOM     31  N   UNL     1     -21.370   6.686 -74.586  1.00  0.00    -0.300 NA
ATOM     32  C   UNL     1     -23.665   6.521 -74.050  1.00  0.00     0.101 C 
ATOM     33  C   UNL     1     -22.653   6.382 -75.160  1.00  0.00     0.100 C 
BRANCH  30  34
ATOM     34  C   UNL     1     -22.397   7.437 -72.208  1.00  0.00     0.087 C 
BRANCH  34  35
ATOM     35  C   UNL     1     -21.716   6.105 -72.216  1.00  0.00     0.031 CG0
ATOM     36  G   UNL     1     -21.010   5.773 -73.494  1.00  0.00     0.000 G0
ENDBRANCH  34  35
ENDBRANCH  30  34
BRANCH  31  37
ATOM     37  C   UNL     1     -21.006   5.787 -73.508  1.00  0.00     0.086 CG0
ATOM     38  G   UNL     1     -21.698   6.117 -72.221  1.00  0.00     0.000 G0
ENDBRANCH  31  37
ENDBRANCH  25  28
ENDBRANCH  23  24
ENDBRANCH   5  23
TORSDOF 6
ENDMDL
MODEL 9
REMARK VINA RESULT:   -12.831      8.493     11.373
REMARK INTER + INTRA:          -1.299
REMARK INTER:                  -4.407
REMARK INTRA:                   3.108
REMARK UNBOUND:                20.534
REMARK SMILES O=C(NCc1cccc(CNC(=O)[C@H]2CN3CCCN2CC3)c1)[C@H]1CN2CCCN1CC2
REMARK SMILES IDX 5 1 6 2 7 3 8 4 9 5 23 6 4 7 3 8 1 9 2 10 24 12 25 13 30 14
REMARK SMILES IDX 26 15 31 16 32 17 29 18 27 20 28 21 10 23 11 24 12 25 13 27
REMARK SMILES IDX 14 28 15 29 20 30 16 31 21 32 22 33 19 34 18 35 17 37
REMARK H PARENT 3 11 11 26
REMARK Flexibility Score: 180.00
ROOT
ATOM      1  C   UNL     1     -19.495   2.746 -69.527  1.00  0.00    -0.028 A 
ATOM      2  C   UNL     1     -19.705   1.738 -68.594  1.00  0.00     0.005 A 
ATOM      3  C   UNL     1     -18.718   0.875 -68.200  1.00  0.00     0.001 A 
ATOM      4  C   UNL     1     -17.504   0.933 -68.865  1.00  0.00     0.005 A 
ATOM      5  C   UNL     1     -17.304   1.806 -69.925  1.00  0.00    -0.028 A 
ATOM      6  C   UNL     1     -18.210   2.848 -70.027  1.00  0.00     0.011 A 
ENDROOT
BRANCH   1   7
ATOM      7  C   UNL     1     -20.641   3.396 -70.222  1.00  0.00     0.151 C 
BRANCH   7   8
ATOM      8  N   UNL     1     -20.136   4.438 -71.072  1.00  0.00    -0.351 N 
ATOM      9  O   UNL     1     -20.685   6.073 -70.120  1.00  0.00    -0.273 OA
ATOM     10  C   UNL     1     -20.568   5.795 -70.860  1.00  0.00     0.238 C 
ATOM     11  H   UNL     1     -19.501   4.226 -71.793  1.00  0.00     0.163 HD
BRANCH  10  12
ATOM     12  C   UNL     1     -21.155   6.500 -72.195  1.00  0.00     0.160 C 
ATOM     13  C   UNL     1     -21.200   7.973 -71.477  1.00  0.00     0.113 C 
ATOM     14  N   UNL     1     -19.711   6.686 -72.780  1.00  0.00    -0.290 NA
ATOM     15  N   UNL     1     -20.582   8.927 -72.294  1.00  0.00    -0.300 NA
ATOM     16  C   UNL     1     -18.896   7.369 -71.883  1.00  0.00     0.101 C 
ATOM     17  C   UNL     1     -19.148   8.862 -72.080  1.00  0.00     0.100 C 
BRANCH  14  18
ATOM     18  C   UNL     1     -19.788   7.036 -74.122  1.00  0.00     0.087 CG1
ATOM     19  G   UNL     1     -21.077   7.790 -74.422  1.00  0.00     0.000 G1
ENDBRANCH  14  18
BRANCH  15  20
ATOM     20  C   UNL     1     -20.988   9.058 -73.639  1.00  0.00     0.086 C 
BRANCH  20  21
ATOM     21  C   UNL     1     -21.076   7.785 -74.425  1.00  0.00     0.031 CG1
ATOM     22  G   UNL     1     -19.782   7.040 -74.124  1.00  0.00     0.000 G1
ENDBRANCH  20  21
ENDBRANCH  15  20
ENDBRANCH  10  12
ENDBRANCH   7   8
ENDBRANCH   1   7
BRANCH   5  23
ATOM     23  C   UNL     1     -16.240   1.598 -70.946  1.00  0.00     0.151 C 
BRANCH  23  24
ATOM     24  N   UNL     1     -16.287   2.748 -71.828  1.00  0.00    -0.351 N 
ATOM     25  C   UNL     1     -16.529   2.583 -73.165  1.00  0.00     0.238 C 
ATOM     26  H   UNL     1     -16.145   3.651 -71.464  1.00  0.00     0.163 HD
ATOM     27  O   UNL     1     -16.936   1.457 -73.582  1.00  0.00    -0.273 OA
BRANCH  25  28
ATOM     28  C   UNL     1     -17.058   3.774 -74.110  1.00  0.00     0.160 C 
ATOM     29  C   UNL     1     -16.325   4.984 -73.272  1.00  0.00     0.113 C 
ATOM     30  N   UNL     1     -15.835   3.600 -75.086  1.00  0.00    -0.290 NA
ATOM     31  N   UNL     1     -15.946   5.988 -74.205  1.00  0.00    -0.300 NA
ATOM     32  C   UNL     1     -15.954   4.582 -76.104  1.00  0.00     0.101 C 
ATOM     33  C   UNL     1     -16.549   5.830 -75.501  1.00  0.00     0.100 C 
BRANCH  30  34
ATOM     34  C   UNL     1     -14.646   3.627 -74.310  1.00  0.00     0.087 C 
BRANCH  34  35
ATOM     35  C   UNL     1     -13.794   4.844 -74.488  1.00  0.00     0.031 CG0
ATOM     36  G   UNL     1     -14.515   6.143 -74.294  1.00  0.00     0.000 G0
ENDBRANCH  34  35
ENDBRANCH  30  34
BRANCH  31  37
ATOM     37  C   UNL     1     -14.505   6.142 -74.269  1.00  0.00     0.086 CG0
ATOM     38  G   UNL     1     -13.792   4.841 -74.474  1.00  0.00     0.000 G0
ENDBRANCH  31  37
ENDBRANCH  25  28
ENDBRANCH  23  24
ENDBRANCH   5  23
TORSDOF 6
ENDMDL
