MODEL 1
REMARK VINA RESULT:   -13.735      0.000      0.000
REMARK INTER + INTRA:          -3.976
REMARK INTER:                  -5.445
REMARK INTRA:                   1.469
REMARK UNBOUND:                18.591
REMARK SMILES C(/C=N\NC1=NCCCCN1)=N/NC1=NCCCCN1
REMARK SMILES IDX 1 1 12 2 2 3 3 4 4 5 5 6 6 8 11 9 7 11 8 12 10 14 9 15 13 17
REMARK SMILES IDX 14 18 15 20 20 21 16 23 17 24 19 26 18 27
REMARK H PARENT 4 7 11 10 13 19 20 22
REMARK Flexibility Score: 180.00
ROOT
ATOM      1  C   UNL     1     -15.689   6.800 -75.154  1.00  0.00     0.155 C 
ATOM      2  N   UNL     1     -14.863   6.423 -76.084  1.00  0.00    -0.180 NA
ENDROOT
BRANCH   1   3
ATOM      3  C   UNL     1     -16.410   8.046 -75.448  1.00  0.00     0.155 C 
ATOM      4  N   UNL     1     -15.822   9.157 -75.113  1.00  0.00    -0.180 NA
BRANCH   4   5
ATOM      5  N   UNL     1     -14.867   9.081 -74.079  1.00  0.00    -0.247 N 
ATOM      6  C   UNL     1     -14.437  10.283 -73.468  1.00  0.00     0.212 C 
ATOM      7  H   UNL     1     -14.508   8.212 -73.789  1.00  0.00     0.193 HD
ATOM      8  N   UNL     1     -15.429  11.073 -73.187  1.00  0.00    -0.252 NA
ATOM      9  N   UNL     1     -13.068  10.455 -73.133  1.00  0.00    -0.355 N 
ATOM     10  H   UNL     1     -12.538   9.626 -73.135  1.00  0.00     0.163 HD
BRANCH   8  11
ATOM     11  C   UNL     1     -15.549  12.079 -72.138  1.00  0.00     0.146 C 
BRANCH  11  12
ATOM     12  C   UNL     1     -14.253  12.236 -71.373  1.00  0.00     0.026 CG0
ATOM     13  G   UNL     1     -13.230  12.775 -72.339  1.00  0.00     0.000 G0
ENDBRANCH  11  12
ENDBRANCH   8  11
BRANCH   9  14
ATOM     14  C   UNL     1     -12.318  11.658 -72.784  1.00  0.00     0.116 C 
BRANCH  14  15
ATOM     15  C   UNL     1     -13.226  12.771 -72.334  1.00  0.00     0.023 CG0
ATOM     16  G   UNL     1     -14.275  12.253 -71.387  1.00  0.00     0.000 G0
ENDBRANCH  14  15
ENDBRANCH   9  14
ENDBRANCH   4   5
ENDBRANCH   1   3
BRANCH   2  17
ATOM     17  N   UNL     1     -15.442   6.266 -77.358  1.00  0.00    -0.247 N 
ATOM     18  C   UNL     1     -14.902   5.238 -78.197  1.00  0.00     0.212 C 
ATOM     19  H   UNL     1     -16.186   6.838 -77.658  1.00  0.00     0.193 HD
ATOM     20  N   UNL     1     -13.694   4.874 -77.981  1.00  0.00    -0.252 NA
ATOM     21  N   UNL     1     -15.786   4.694 -79.158  1.00  0.00    -0.355 N 
ATOM     22  H   UNL     1     -16.545   5.288 -79.357  1.00  0.00     0.163 HD
BRANCH  20  23
ATOM     23  C   UNL     1     -12.879   3.797 -78.519  1.00  0.00     0.146 C 
BRANCH  23  24
ATOM     24  C   UNL     1     -13.791   2.611 -78.704  1.00  0.00     0.026 CG1
ATOM     25  G   UNL     1     -14.496   2.782 -80.023  1.00  0.00     0.000 G1
ENDBRANCH  23  24
ENDBRANCH  20  23
BRANCH  21  26
ATOM     26  C   UNL     1     -15.826   3.470 -79.910  1.00  0.00     0.116 C 
BRANCH  26  27
ATOM     27  C   UNL     1     -14.493   2.790 -80.032  1.00  0.00     0.023 CG1
ATOM     28  G   UNL     1     -13.791   2.615 -78.711  1.00  0.00     0.000 G1
ENDBRANCH  26  27
ENDBRANCH  21  26
ENDBRANCH   2  17
TORSDOF 3
ENDMDL
MODEL 2
REMARK VINA RESULT:   -13.725      9.065     13.047
REMARK INTER + INTRA:          -3.960
REMARK INTER:                  -5.638
REMARK INTRA:                   1.678
REMARK UNBOUND:                18.591
REMARK SMILES C(/C=N\NC1=NCCCCN1)=N/NC1=NCCCCN1
REMARK SMILES IDX 1 1 12 2 2 3 3 4 4 5 5 6 6 8 11 9 7 11 8 12 10 14 9 15 13 17
REMARK SMILES IDX 14 18 15 20 20 21 16 23 17 24 19 26 18 27
REMARK H PARENT 4 7 11 10 13 19 20 22
REMARK Flexibility Score: 180.00
ROOT
ATOM      1  C   UNL     1     -18.285  14.143 -71.080  1.00  0.00     0.155 C 
ATOM      2  N   UNL     1     -18.016  15.399 -70.881  1.00  0.00    -0.180 NA
ENDROOT
BRANCH   1   3
ATOM      3  C   UNL     1     -19.615  13.886 -71.648  1.00  0.00     0.155 C 
ATOM      4  N   UNL     1     -20.457  13.236 -70.900  1.00  0.00    -0.180 NA
BRANCH   4   5
ATOM      5  N   UNL     1     -19.907  12.407 -69.901  1.00  0.00    -0.247 N 
ATOM      6  C   UNL     1     -20.472  11.125 -69.701  1.00  0.00     0.212 C 
ATOM      7  H   UNL     1     -19.148  12.714 -69.355  1.00  0.00     0.193 HD
ATOM      8  N   UNL     1     -20.681  10.502 -70.821  1.00  0.00    -0.252 NA
ATOM      9  N   UNL     1     -20.637  10.623 -68.384  1.00  0.00    -0.355 N 
ATOM     10  H   UNL     1     -20.130  11.107 -67.693  1.00  0.00     0.163 HD
BRANCH   8  11
ATOM     11  C   UNL     1     -20.712   9.069 -71.097  1.00  0.00     0.146 C 
BRANCH  11  12
ATOM     12  C   UNL     1     -20.515   8.260 -69.834  1.00  0.00     0.026 CG0
ATOM     13  G   UNL     1     -21.725   8.489 -68.967  1.00  0.00     0.000 G0
ENDBRANCH  11  12
ENDBRANCH   8  11
BRANCH   9  14
ATOM     14  C   UNL     1     -21.434   9.507 -67.884  1.00  0.00     0.116 C 
BRANCH  14  15
ATOM     15  C   UNL     1     -21.725   8.500 -68.965  1.00  0.00     0.023 CG0
ATOM     16  G   UNL     1     -20.509   8.278 -69.826  1.00  0.00     0.000 G0
ENDBRANCH  14  15
ENDBRANCH   9  14
ENDBRANCH   4   5
ENDBRANCH   1   3
BRANCH   2  17
ATOM     17  N   UNL     1     -18.133  16.214 -72.023  1.00  0.00    -0.247 N 
ATOM     18  C   UNL     1     -18.786  17.479 -71.856  1.00  0.00     0.212 C 
ATOM     19  H   UNL     1     -17.781  15.928 -72.897  1.00  0.00     0.193 HD
ATOM     20  N   UNL     1     -19.614  17.592 -70.887  1.00  0.00    -0.252 NA
ATOM     21  N   UNL     1     -18.409  18.496 -72.764  1.00  0.00    -0.355 N 
ATOM     22  H   UNL     1     -17.998  18.141 -73.585  1.00  0.00     0.163 HD
BRANCH  20  23
ATOM     23  C   UNL     1     -20.337  18.727 -70.337  1.00  0.00     0.146 C 
BRANCH  23  24
ATOM     24  C   UNL     1     -20.658  19.641 -71.492  1.00  0.00     0.026 CG1
ATOM     25  G   UNL     1     -19.446  20.498 -71.743  1.00  0.00     0.000 G1
ENDBRANCH  23  24
ENDBRANCH  20  23
BRANCH  21  26
ATOM     26  C   UNL     1     -18.490  19.930 -72.758  1.00  0.00     0.116 C 
BRANCH  26  27
ATOM     27  C   UNL     1     -19.425  20.481 -71.721  1.00  0.00     0.023 CG1
ATOM     28  G   UNL     1     -20.656  19.637 -71.522  1.00  0.00     0.000 G1
ENDBRANCH  26  27
ENDBRANCH  21  26
ENDBRANCH   2  17
TORSDOF 3
ENDMDL
MODEL 3
REMARK VINA RESULT:   -13.430     11.510     14.759
REMARK INTER + INTRA:          -3.474
REMARK INTER:                  -5.222
REMARK INTRA:                   1.747
REMARK UNBOUND:                18.591
REMARK SMILES C(/C=N\NC1=NCCCCN1)=N/NC1=NCCCCN1
REMARK SMILES IDX 1 1 12 2 2 3 3 4 4 5 5 6 6 8 11 9 7 11 8 12 10 14 9 15 13 17
REMARK SMILES IDX 14 18 15 20 20 21 16 23 17 24 19 26 18 27
REMARK H PARENT 4 7 11 10 13 19 20 22
REMARK Flexibility Score: 180.00
ROOT
ATOM      1  C   UNL     1     -22.341  14.755 -71.940  1.00  0.00     0.155 C 
ATOM      2  N   UNL     1     -21.201  15.372 -71.853  1.00  0.00    -0.180 NA
ENDROOT
BRANCH   1   3
ATOM      3  C   UNL     1     -23.517  15.622 -71.786  1.00  0.00     0.155 C 
ATOM      4  N   UNL     1     -24.611  15.237 -72.375  1.00  0.00    -0.180 NA
BRANCH   4   5
ATOM      5  N   UNL     1     -24.465  14.380 -73.484  1.00  0.00    -0.247 N 
ATOM      6  C   UNL     1     -25.310  13.249 -73.578  1.00  0.00     0.212 C 
ATOM      7  H   UNL     1     -23.790  14.563 -74.176  1.00  0.00     0.193 HD
ATOM      8  N   UNL     1     -26.550  13.541 -73.320  1.00  0.00    -0.252 NA
ATOM      9  N   UNL     1     -24.786  12.010 -74.031  1.00  0.00    -0.355 N 
ATOM     10  H   UNL     1     -23.911  12.072 -74.475  1.00  0.00     0.163 HD
BRANCH   8  11
ATOM     11  C   UNL     1     -27.773  12.905 -73.796  1.00  0.00     0.146 C 
BRANCH  11  12
ATOM     12  C   UNL     1     -27.470  11.682 -74.633  1.00  0.00     0.026 CG0
ATOM     13  G   UNL     1     -26.804  10.679 -73.729  1.00  0.00     0.000 G0
ENDBRANCH  11  12
ENDBRANCH   8  11
BRANCH   9  14
ATOM     14  C   UNL     1     -25.331  10.658 -73.946  1.00  0.00     0.116 C 
BRANCH  14  15
ATOM     15  C   UNL     1     -26.822  10.670 -73.733  1.00  0.00     0.023 CG0
ATOM     16  G   UNL     1     -27.483  11.666 -74.648  1.00  0.00     0.000 G0
ENDBRANCH  14  15
ENDBRANCH   9  14
ENDBRANCH   4   5
ENDBRANCH   1   3
BRANCH   2  17
ATOM     17  N   UNL     1     -21.039  16.439 -72.757  1.00  0.00    -0.247 N 
ATOM     18  C   UNL     1     -20.480  17.653 -72.239  1.00  0.00     0.212 C 
ATOM     19  H   UNL     1     -21.297  16.355 -73.704  1.00  0.00     0.193 HD
ATOM     20  N   UNL     1     -20.611  17.875 -70.985  1.00  0.00    -0.252 NA
ATOM     21  N   UNL     1     -19.793  18.466 -73.170  1.00  0.00    -0.355 N 
ATOM     22  H   UNL     1     -20.048  18.278 -74.102  1.00  0.00     0.163 HD
BRANCH  20  23
ATOM     23  C   UNL     1     -20.070  18.897 -70.105  1.00  0.00     0.146 C 
BRANCH  23  24
ATOM     24  C   UNL     1     -19.968  20.163 -70.917  1.00  0.00     0.026 CG1
ATOM     25  G   UNL     1     -18.679  20.102 -71.691  1.00  0.00     0.000 G1
ENDBRANCH  23  24
ENDBRANCH  20  23
BRANCH  21  26
ATOM     26  C   UNL     1     -18.806  19.505 -73.063  1.00  0.00     0.116 C 
BRANCH  26  27
ATOM     27  C   UNL     1     -18.669  20.071 -71.679  1.00  0.00     0.023 CG1
ATOM     28  G   UNL     1     -19.978  20.163 -70.942  1.00  0.00     0.000 G1
ENDBRANCH  26  27
ENDBRANCH  21  26
ENDBRANCH   2  17
TORSDOF 3
ENDMDL
MODEL 4
REMARK VINA RESULT:   -13.376     10.438     13.701
REMARK INTER + INTRA:          -3.387
REMARK INTER:                  -4.050
REMARK INTRA:                   0.663
REMARK UNBOUND:                18.591
REMARK SMILES C(/C=N\NC1=NCCCCN1)=N/NC1=NCCCCN1
REMARK SMILES IDX 1 1 12 2 2 3 3 4 4 5 5 6 6 8 11 9 7 11 8 12 10 14 9 15 13 17
REMARK SMILES IDX 14 18 15 20 20 21 16 23 17 24 19 26 18 27
REMARK H PARENT 4 7 11 10 13 19 20 22
REMARK Flexibility Score: 180.00
ROOT
ATOM      1  C   UNL     1      -7.886   2.510 -77.053  1.00  0.00     0.155 C 
ATOM      2  N   UNL     1      -7.436   3.035 -78.153  1.00  0.00    -0.180 NA
ENDROOT
BRANCH   1   3
ATOM      3  C   UNL     1      -8.599   1.238 -77.231  1.00  0.00     0.155 C 
ATOM      4  N   UNL     1      -8.023   0.172 -76.760  1.00  0.00    -0.180 NA
BRANCH   4   5
ATOM      5  N   UNL     1      -6.622   0.219 -76.617  1.00  0.00    -0.247 N 
ATOM      6  C   UNL     1      -5.844  -0.773 -77.259  1.00  0.00     0.212 C 
ATOM      7  H   UNL     1      -6.195   0.926 -76.082  1.00  0.00     0.193 HD
ATOM      8  N   UNL     1      -6.224  -0.976 -78.485  1.00  0.00    -0.252 NA
ATOM      9  N   UNL     1      -4.722  -1.332 -76.594  1.00  0.00    -0.355 N 
ATOM     10  H   UNL     1      -4.414  -0.824 -75.809  1.00  0.00     0.163 HD
BRANCH   8  11
ATOM     11  C   UNL     1      -5.452  -1.440 -79.633  1.00  0.00     0.146 C 
BRANCH  11  12
ATOM     12  C   UNL     1      -4.038  -1.800 -79.238  1.00  0.00     0.026 CG0
ATOM     13  G   UNL     1      -4.124  -2.973 -78.297  1.00  0.00     0.000 G0
ENDBRANCH  11  12
ENDBRANCH   8  11
BRANCH   9  14
ATOM     14  C   UNL     1      -3.948  -2.536 -76.882  1.00  0.00     0.116 C 
BRANCH  14  15
ATOM     15  C   UNL     1      -4.112  -2.977 -78.312  1.00  0.00     0.023 CG0
ATOM     16  G   UNL     1      -4.017  -1.799 -79.246  1.00  0.00     0.000 G0
ENDBRANCH  14  15
ENDBRANCH   9  14
ENDBRANCH   4   5
ENDBRANCH   1   3
BRANCH   2  17
ATOM     17  N   UNL     1      -6.588   2.196 -78.902  1.00  0.00    -0.247 N 
ATOM     18  C   UNL     1      -5.448   2.805 -79.520  1.00  0.00     0.212 C 
ATOM     19  H   UNL     1      -6.771   1.232 -78.995  1.00  0.00     0.193 HD
ATOM     20  N   UNL     1      -5.514   4.058 -79.773  1.00  0.00    -0.252 NA
ATOM     21  N   UNL     1      -4.339   1.958 -79.748  1.00  0.00    -0.355 N 
ATOM     22  H   UNL     1      -4.583   1.004 -79.757  1.00  0.00     0.163 HD
BRANCH  20  23
ATOM     23  C   UNL     1      -4.533   5.019 -80.250  1.00  0.00     0.146 C 
BRANCH  23  24
ATOM     24  C   UNL     1      -3.219   4.655 -79.609  1.00  0.00     0.026 CG1
ATOM     25  G   UNL     1      -2.595   3.565 -80.439  1.00  0.00     0.000 G1
ENDBRANCH  23  24
ENDBRANCH  20  23
BRANCH  21  26
ATOM     26  C   UNL     1      -2.936   2.175 -79.968  1.00  0.00     0.116 C 
BRANCH  26  27
ATOM     27  C   UNL     1      -2.605   3.555 -80.458  1.00  0.00     0.023 CG1
ATOM     28  G   UNL     1      -3.207   4.646 -79.613  1.00  0.00     0.000 G1
ENDBRANCH  26  27
ENDBRANCH  21  26
ENDBRANCH   2  17
TORSDOF 3
ENDMDL
MODEL 5
REMARK VINA RESULT:   -13.367      4.521      9.300
REMARK INTER + INTRA:          -3.372
REMARK INTER:                  -4.537
REMARK INTRA:                   1.166
REMARK UNBOUND:                18.591
REMARK SMILES C(/C=N\NC1=NCCCCN1)=N/NC1=NCCCCN1
REMARK SMILES IDX 1 1 12 2 2 3 3 4 4 5 5 6 6 8 11 9 7 11 8 12 10 14 9 15 13 17
REMARK SMILES IDX 14 18 15 20 20 21 16 23 17 24 19 26 18 27
REMARK H PARENT 4 7 11 10 13 19 20 22
REMARK Flexibility Score: 180.00
ROOT
ATOM      1  C   UNL     1     -15.539   8.087 -73.572  1.00  0.00     0.155 C 
ATOM      2  N   UNL     1     -15.628   9.292 -73.094  1.00  0.00    -0.180 NA
ENDROOT
BRANCH   1   3
ATOM      3  C   UNL     1     -15.877   7.970 -74.997  1.00  0.00     0.155 C 
ATOM      4  N   UNL     1     -16.997   8.507 -75.380  1.00  0.00    -0.180 NA
BRANCH   4   5
ATOM      5  N   UNL     1     -17.992   8.668 -74.395  1.00  0.00    -0.247 N 
ATOM      6  C   UNL     1     -19.213   7.970 -74.549  1.00  0.00     0.212 C 
ATOM      7  H   UNL     1     -17.841   9.254 -73.619  1.00  0.00     0.193 HD
ATOM      8  N   UNL     1     -19.029   6.729 -74.888  1.00  0.00    -0.252 NA
ATOM      9  N   UNL     1     -20.439   8.608 -74.225  1.00  0.00    -0.355 N 
ATOM     10  H   UNL     1     -20.346   9.428 -73.689  1.00  0.00     0.163 HD
BRANCH   8  11
ATOM     11  C   UNL     1     -19.865   5.561 -74.634  1.00  0.00     0.146 C 
BRANCH  11  12
ATOM     12  C   UNL     1     -21.125   5.937 -73.886  1.00  0.00     0.026 CG0
ATOM     13  G   UNL     1     -21.963   6.771 -74.819  1.00  0.00     0.000 G0
ENDBRANCH  11  12
ENDBRANCH   8  11
BRANCH   9  14
ATOM     14  C   UNL     1     -21.815   8.250 -74.556  1.00  0.00     0.116 C 
BRANCH  14  15
ATOM     15  C   UNL     1     -21.956   6.777 -74.837  1.00  0.00     0.023 CG0
ATOM     16  G   UNL     1     -21.122   5.970 -73.877  1.00  0.00     0.000 G0
ENDBRANCH  14  15
ENDBRANCH   9  14
ENDBRANCH   4   5
ENDBRANCH   1   3
BRANCH   2  17
ATOM     17  N   UNL     1     -14.857  10.254 -73.774  1.00  0.00    -0.247 N 
ATOM     18  C   UNL     1     -14.702  11.530 -73.141  1.00  0.00     0.212 C 
ATOM     19  H   UNL     1     -14.442  10.058 -74.645  1.00  0.00     0.193 HD
ATOM     20  N   UNL     1     -15.604  11.889 -72.307  1.00  0.00    -0.252 NA
ATOM     21  N   UNL     1     -13.530  12.249 -73.474  1.00  0.00    -0.355 N 
ATOM     22  H   UNL     1     -13.129  11.952 -74.322  1.00  0.00     0.163 HD
BRANCH  20  23
ATOM     23  C   UNL     1     -15.709  13.016 -71.395  1.00  0.00     0.146 C 
BRANCH  23  24
ATOM     24  C   UNL     1     -15.024  14.181 -72.061  1.00  0.00     0.026 CG1
ATOM     25  G   UNL     1     -13.548  14.055 -71.789  1.00  0.00     0.000 G1
ENDBRANCH  23  24
ENDBRANCH  20  23
BRANCH  21  26
ATOM     26  C   UNL     1     -12.794  13.316 -72.855  1.00  0.00     0.116 C 
BRANCH  26  27
ATOM     27  C   UNL     1     -13.555  14.031 -71.775  1.00  0.00     0.023 CG1
ATOM     28  G   UNL     1     -15.020  14.182 -72.082  1.00  0.00     0.000 G1
ENDBRANCH  26  27
ENDBRANCH  21  26
ENDBRANCH   2  17
TORSDOF 3
ENDMDL
MODEL 6
REMARK VINA RESULT:   -13.296     11.037     15.294
REMARK INTER + INTRA:          -3.254
REMARK INTER:                  -3.863
REMARK INTRA:                   0.609
REMARK UNBOUND:                18.591
REMARK SMILES C(/C=N\NC1=NCCCCN1)=N/NC1=NCCCCN1
REMARK SMILES IDX 1 1 12 2 2 3 3 4 4 5 5 6 6 8 11 9 7 11 8 12 10 14 9 15 13 17
REMARK SMILES IDX 14 18 15 20 20 21 16 23 17 24 19 26 18 27
REMARK H PARENT 4 7 11 10 13 19 20 22
REMARK Flexibility Score: 180.00
ROOT
ATOM      1  C   UNL     1     -25.346  10.878 -64.332  1.00  0.00     0.155 C 
ATOM      2  N   UNL     1     -25.160  11.846 -65.179  1.00  0.00    -0.180 NA
ENDROOT
BRANCH   1   3
ATOM      3  C   UNL     1     -24.164  10.038 -64.096  1.00  0.00     0.155 C 
ATOM      4  N   UNL     1     -23.331   9.906 -65.086  1.00  0.00    -0.180 NA
BRANCH   4   5
ATOM      5  N   UNL     1     -23.848  10.106 -66.381  1.00  0.00    -0.247 N 
ATOM      6  C   UNL     1     -22.949  10.429 -67.425  1.00  0.00     0.212 C 
ATOM      7  H   UNL     1     -24.813  10.024 -66.555  1.00  0.00     0.193 HD
ATOM      8  N   UNL     1     -21.891   9.675 -67.411  1.00  0.00    -0.252 NA
ATOM      9  N   UNL     1     -23.312  11.397 -68.397  1.00  0.00    -0.355 N 
ATOM     10  H   UNL     1     -24.271  11.619 -68.418  1.00  0.00     0.163 HD
BRANCH   8  11
ATOM     11  C   UNL     1     -21.023   9.269 -68.511  1.00  0.00     0.146 C 
BRANCH  11  12
ATOM     12  C   UNL     1     -21.440   9.920 -69.811  1.00  0.00     0.026 CG0
ATOM     13  G   UNL     1     -21.204  11.400 -69.662  1.00  0.00     0.000 G0
ENDBRANCH  11  12
ENDBRANCH   8  11
BRANCH   9  14
ATOM     14  C   UNL     1     -22.499  12.118 -69.372  1.00  0.00     0.116 C 
BRANCH  14  15
ATOM     15  C   UNL     1     -21.201  11.407 -69.651  1.00  0.00     0.023 CG0
ATOM     16  G   UNL     1     -21.429   9.927 -69.815  1.00  0.00     0.000 G0
ENDBRANCH  14  15
ENDBRANCH   9  14
ENDBRANCH   4   5
ENDBRANCH   1   3
BRANCH   2  17
ATOM     17  N   UNL     1     -24.102  12.716 -64.854  1.00  0.00    -0.247 N 
ATOM     18  C   UNL     1     -23.964  13.900 -65.650  1.00  0.00     0.212 C 
ATOM     19  H   UNL     1     -23.485  12.520 -64.112  1.00  0.00     0.193 HD
ATOM     20  N   UNL     1     -24.446  13.874 -66.835  1.00  0.00    -0.252 NA
ATOM     21  N   UNL     1     -23.345  15.004 -65.017  1.00  0.00    -0.355 N 
ATOM     22  H   UNL     1     -22.801  14.741 -64.241  1.00  0.00     0.163 HD
BRANCH  20  23
ATOM     23  C   UNL     1     -24.615  14.898 -67.853  1.00  0.00     0.146 C 
BRANCH  23  24
ATOM     24  C   UNL     1     -25.015  16.162 -67.136  1.00  0.00     0.026 CG1
ATOM     25  G   UNL     1     -23.756  16.822 -66.642  1.00  0.00     0.000 G1
ENDBRANCH  23  24
ENDBRANCH  20  23
BRANCH  21  26
ATOM     26  C   UNL     1     -23.330  16.421 -65.254  1.00  0.00     0.116 C 
BRANCH  26  27
ATOM     27  C   UNL     1     -23.734  16.808 -66.648  1.00  0.00     0.023 CG1
ATOM     28  G   UNL     1     -25.016  16.159 -67.097  1.00  0.00     0.000 G1
ENDBRANCH  26  27
ENDBRANCH  21  26
ENDBRANCH   2  17
TORSDOF 3
ENDMDL
MODEL 7
REMARK VINA RESULT:   -13.133      9.051     13.227
REMARK INTER + INTRA:          -2.986
REMARK INTER:                  -3.330
REMARK INTRA:                   0.344
REMARK UNBOUND:                18.591
REMARK SMILES C(/C=N\NC1=NCCCCN1)=N/NC1=NCCCCN1
REMARK SMILES IDX 1 1 12 2 2 3 3 4 4 5 5 6 6 8 11 9 7 11 8 12 10 14 9 15 13 17
REMARK SMILES IDX 14 18 15 20 20 21 16 23 17 24 19 26 18 27
REMARK H PARENT 4 7 11 10 13 19 20 22
REMARK Flexibility Score: 180.00
ROOT
ATOM      1  C   UNL     1      -4.672   4.043 -77.261  1.00  0.00     0.155 C 
ATOM      2  N   UNL     1      -5.537   3.176 -76.826  1.00  0.00    -0.180 NA
ENDROOT
BRANCH   1   3
ATOM      3  C   UNL     1      -4.747   4.307 -78.704  1.00  0.00     0.155 C 
ATOM      4  N   UNL     1      -4.875   3.275 -79.484  1.00  0.00    -0.180 NA
BRANCH   4   5
ATOM      5  N   UNL     1      -4.416   2.041 -78.981  1.00  0.00    -0.247 N 
ATOM      6  C   UNL     1      -4.292   0.951 -79.876  1.00  0.00     0.212 C 
ATOM      7  H   UNL     1      -4.187   1.939 -78.030  1.00  0.00     0.193 HD
ATOM      8  N   UNL     1      -3.715   1.294 -80.989  1.00  0.00    -0.252 NA
ATOM      9  N   UNL     1      -4.673  -0.351 -79.461  1.00  0.00    -0.355 N 
ATOM     10  H   UNL     1      -4.784  -0.457 -78.489  1.00  0.00     0.163 HD
BRANCH   8  11
ATOM     11  C   UNL     1      -2.919   0.490 -81.910  1.00  0.00     0.146 C 
BRANCH  11  12
ATOM     12  C   UNL     1      -2.822  -0.946 -81.446  1.00  0.00     0.026 CG0
ATOM     13  G   UNL     1      -4.203  -1.540 -81.548  1.00  0.00     0.000 G0
ENDBRANCH  11  12
ENDBRANCH   8  11
BRANCH   9  14
ATOM     14  C   UNL     1      -4.927  -1.561 -80.238  1.00  0.00     0.116 C 
BRANCH  14  15
ATOM     15  C   UNL     1      -4.216  -1.532 -81.565  1.00  0.00     0.023 CG0
ATOM     16  G   UNL     1      -2.832  -0.956 -81.415  1.00  0.00     0.000 G0
ENDBRANCH  14  15
ENDBRANCH   9  14
ENDBRANCH   4   5
ENDBRANCH   1   3
BRANCH   2  17
ATOM     17  N   UNL     1      -6.880   3.490 -77.111  1.00  0.00    -0.247 N 
ATOM     18  C   UNL     1      -7.767   2.392 -77.359  1.00  0.00     0.212 C 
ATOM     19  H   UNL     1      -7.195   4.423 -77.138  1.00  0.00     0.193 HD
ATOM     20  N   UNL     1      -7.250   1.299 -77.778  1.00  0.00    -0.252 NA
ATOM     21  N   UNL     1      -9.132   2.620 -77.068  1.00  0.00    -0.355 N 
ATOM     22  H   UNL     1      -9.361   3.577 -77.041  1.00  0.00     0.163 HD
BRANCH  20  23
ATOM     23  C   UNL     1      -7.799  -0.029 -77.997  1.00  0.00     0.146 C 
BRANCH  23  24
ATOM     24  C   UNL     1      -8.798  -0.275 -76.896  1.00  0.00     0.026 CG1
ATOM     25  G   UNL     1     -10.098   0.358 -77.313  1.00  0.00     0.000 G1
ENDBRANCH  23  24
ENDBRANCH  20  23
BRANCH  21  26
ATOM     26  C   UNL     1     -10.260   1.770 -76.804  1.00  0.00     0.116 C 
BRANCH  26  27
ATOM     27  C   UNL     1     -10.100   0.371 -77.324  1.00  0.00     0.023 CG1
ATOM     28  G   UNL     1      -8.807  -0.275 -76.903  1.00  0.00     0.000 G1
ENDBRANCH  26  27
ENDBRANCH  21  26
ENDBRANCH   2  17
TORSDOF 3
ENDMDL
MODEL 8
REMARK VINA RESULT:   -13.112     12.152     14.227
REMARK INTER + INTRA:          -2.952
REMARK INTER:                  -3.307
REMARK INTRA:                   0.354
REMARK UNBOUND:                18.591
REMARK SMILES C(/C=N\NC1=NCCCCN1)=N/NC1=NCCCCN1
REMARK SMILES IDX 1 1 12 2 2 3 3 4 4 5 5 6 6 8 11 9 7 11 8 12 10 14 9 15 13 17
REMARK SMILES IDX 14 18 15 20 20 21 16 23 17 24 19 26 18 27
REMARK H PARENT 4 7 11 10 13 19 20 22
REMARK Flexibility Score: 180.00
ROOT
ATOM      1  C   UNL     1      -2.280  -0.951 -81.584  1.00  0.00     0.155 C 
ATOM      2  N   UNL     1      -2.072   0.196 -81.009  1.00  0.00    -0.180 NA
ENDROOT
BRANCH   1   3
ATOM      3  C   UNL     1      -3.638  -1.130 -82.115  1.00  0.00     0.155 C 
ATOM      4  N   UNL     1      -4.623  -0.891 -81.301  1.00  0.00    -0.180 NA
BRANCH   4   5
ATOM      5  N   UNL     1      -4.347  -1.004 -79.923  1.00  0.00    -0.247 N 
ATOM      6  C   UNL     1      -5.420  -0.887 -79.008  1.00  0.00     0.212 C 
ATOM      7  H   UNL     1      -3.429  -1.161 -79.606  1.00  0.00     0.193 HD
ATOM      8  N   UNL     1      -6.457  -1.577 -79.378  1.00  0.00    -0.252 NA
ATOM      9  N   UNL     1      -5.239  -0.174 -77.794  1.00  0.00    -0.355 N 
ATOM     10  H   UNL     1      -4.300  -0.000 -77.556  1.00  0.00     0.163 HD
BRANCH   8  11
ATOM     11  C   UNL     1      -7.508  -2.182 -78.568  1.00  0.00     0.146 C 
BRANCH  11  12
ATOM     12  C   UNL     1      -7.340  -1.844 -77.103  1.00  0.00     0.026 CG0
ATOM     13  G   UNL     1      -7.541  -0.358 -76.965  1.00  0.00     0.000 G0
ENDBRANCH  11  12
ENDBRANCH   8  11
BRANCH   9  14
ATOM     14  C   UNL     1      -6.215   0.343 -76.840  1.00  0.00     0.116 C 
BRANCH  14  15
ATOM     15  C   UNL     1      -7.543  -0.356 -76.965  1.00  0.00     0.023 CG0
ATOM     16  G   UNL     1      -7.352  -1.845 -77.081  1.00  0.00     0.000 G0
ENDBRANCH  14  15
ENDBRANCH   9  14
ENDBRANCH   4   5
ENDBRANCH   1   3
BRANCH   2  17
ATOM     17  N   UNL     1      -2.342   1.317 -81.817  1.00  0.00    -0.247 N 
ATOM     18  C   UNL     1      -3.073   2.393 -81.216  1.00  0.00     0.212 C 
ATOM     19  H   UNL     1      -2.040   1.360 -82.754  1.00  0.00     0.193 HD
ATOM     20  N   UNL     1      -3.826   2.110 -80.220  1.00  0.00    -0.252 NA
ATOM     21  N   UNL     1      -2.847   3.678 -81.762  1.00  0.00    -0.355 N 
ATOM     22  H   UNL     1      -2.479   3.645 -82.674  1.00  0.00     0.163 HD
BRANCH  20  23
ATOM     23  C   UNL     1      -4.586   2.935 -79.295  1.00  0.00     0.146 C 
BRANCH  23  24
ATOM     24  C   UNL     1      -3.756   4.162 -79.022  1.00  0.00     0.026 CG1
ATOM     25  G   UNL     1      -4.008   5.139 -80.140  1.00  0.00     0.000 G1
ENDBRANCH  23  24
ENDBRANCH  20  23
BRANCH  21  26
ATOM     26  C   UNL     1      -3.036   5.020 -81.287  1.00  0.00     0.116 C 
BRANCH  26  27
ATOM     27  C   UNL     1      -4.020   5.132 -80.159  1.00  0.00     0.023 CG1
ATOM     28  G   UNL     1      -3.747   4.170 -79.033  1.00  0.00     0.000 G1
ENDBRANCH  26  27
ENDBRANCH  21  26
ENDBRANCH   2  17
TORSDOF 3
ENDMDL
MODEL 9
REMARK VINA RESULT:   -13.070      9.454     13.033
REMARK INTER + INTRA:          -2.884
REMARK INTER:                  -4.561
REMARK INTRA:                   1.678
REMARK UNBOUND:                18.591
REMARK SMILES C(/C=N\NC1=NCCCCN1)=N/NC1=NCCCCN1
REMARK SMILES IDX 1 1 12 2 2 3 3 4 4 5 5 6 6 8 11 9 7 11 8 12 10 14 9 15 13 17
REMARK SMILES IDX 14 18 15 20 20 21 16 23 17 24 19 26 18 27
REMARK H PARENT 4 7 11 10 13 19 20 22
REMARK Flexibility Score: 180.00
ROOT
ATOM      1  C   UNL     1      -5.739   3.528 -76.992  1.00  0.00     0.155 C 
ATOM      2  N   UNL     1      -4.657   4.242 -77.069  1.00  0.00    -0.180 NA
ENDROOT
BRANCH   1   3
ATOM      3  C   UNL     1      -5.956   2.624 -78.130  1.00  0.00     0.155 C 
ATOM      4  N   UNL     1      -7.101   2.009 -78.181  1.00  0.00    -0.180 NA
BRANCH   4   5
ATOM      5  N   UNL     1      -7.782   1.836 -76.960  1.00  0.00    -0.247 N 
ATOM      6  C   UNL     1      -8.809   0.865 -76.891  1.00  0.00     0.212 C 
ATOM      7  H   UNL     1      -7.549   2.379 -76.173  1.00  0.00     0.193 HD
ATOM      8  N   UNL     1      -8.459  -0.258 -77.442  1.00  0.00    -0.252 NA
ATOM      9  N   UNL     1     -10.001   1.145 -76.173  1.00  0.00    -0.355 N 
ATOM     10  H   UNL     1      -9.943   1.918 -75.567  1.00  0.00     0.163 HD
BRANCH   8  11
ATOM     11  C   UNL     1      -8.907  -1.616 -77.152  1.00  0.00     0.146 C 
BRANCH  11  12
ATOM     12  C   UNL     1      -9.999  -1.625 -76.106  1.00  0.00     0.026 CG0
ATOM     13  G   UNL     1     -11.194  -0.929 -76.705  1.00  0.00     0.000 G0
ENDBRANCH  11  12
ENDBRANCH   8  11
BRANCH   9  14
ATOM     14  C   UNL     1     -11.299   0.477 -76.184  1.00  0.00     0.116 C 
BRANCH  14  15
ATOM     15  C   UNL     1     -11.193  -0.939 -76.687  1.00  0.00     0.023 CG0
ATOM     16  G   UNL     1      -9.985  -1.623 -76.103  1.00  0.00     0.000 G0
ENDBRANCH  14  15
ENDBRANCH   9  14
ENDBRANCH   4   5
ENDBRANCH   1   3
BRANCH   2  17
ATOM     17  N   UNL     1      -3.471   3.500 -77.228  1.00  0.00    -0.247 N 
ATOM     18  C   UNL     1      -2.609   3.873 -78.310  1.00  0.00     0.212 C 
ATOM     19  H   UNL     1      -3.244   2.758 -76.621  1.00  0.00     0.193 HD
ATOM     20  N   UNL     1      -3.140   4.474 -79.308  1.00  0.00    -0.252 NA
ATOM     21  N   UNL     1      -1.237   3.575 -78.141  1.00  0.00    -0.355 N 
ATOM     22  H   UNL     1      -1.079   2.874 -77.468  1.00  0.00     0.163 HD
BRANCH  20  23
ATOM     23  C   UNL     1      -2.578   5.110 -80.488  1.00  0.00     0.146 C 
BRANCH  23  24
ATOM     24  C   UNL     1      -1.295   5.772 -80.055  1.00  0.00     0.026 CG1
ATOM     25  G   UNL     1      -0.216   4.723 -80.066  1.00  0.00     0.000 G1
ENDBRANCH  23  24
ENDBRANCH  20  23
BRANCH  21  26
ATOM     26  C   UNL     1      -0.021   4.064 -78.730  1.00  0.00     0.116 C 
BRANCH  26  27
ATOM     27  C   UNL     1      -0.216   4.728 -80.062  1.00  0.00     0.023 CG1
ATOM     28  G   UNL     1      -1.300   5.772 -80.053  1.00  0.00     0.000 G1
ENDBRANCH  26  27
ENDBRANCH  21  26
ENDBRANCH   2  17
TORSDOF 3
ENDMDL
