MODEL 1
REMARK VINA RESULT:   -12.076      0.000      0.000
REMARK INTER + INTRA:          -2.169
REMARK INTER:                  -3.901
REMARK INTRA:                   1.733
REMARK UNBOUND:                19.085
REMARK SMILES C=CCN1CCC[C@]2(CC1)CNCc1ccccc1O2
REMARK SMILES IDX 8 1 9 3 10 4 4 5 3 6 2 7 1 8 5 9 6 10 7 12 20 14 19 15 14 16
REMARK SMILES IDX 18 17 15 18 17 19 16 20 13 21 12 22 11 24
REMARK H PARENT 12 23
REMARK Flexibility Score: 160.00
ROOT
ATOM      1  C   UNL     1      -4.000  22.814 -87.983  1.00  0.00     0.123 CG1
ATOM      2  G   UNL     1      -4.757  22.779 -89.304  1.00  0.00     0.000 G1
ENDROOT
BRANCH   1   3
ATOM      3  C   UNL     1      -3.376  21.484 -87.665  1.00  0.00     0.065 C 
BRANCH   3   4
ATOM      4  C   UNL     1      -3.101  21.294 -86.200  1.00  0.00     0.089 C 
BRANCH   4   5
ATOM      5  N   UNL     1      -1.856  21.858 -85.768  1.00  0.00    -0.300 NA
BRANCH   5   6
ATOM      6  C   UNL     1      -0.894  20.896 -85.311  1.00  0.00     0.111 C 
BRANCH   6   7
ATOM      7  C   UNL     1      -0.773  21.100 -83.830  1.00  0.00    -0.019 C 
ATOM      8  C   UNL     1      -0.275  21.123 -83.318  1.00  0.00     0.005 C 
ENDBRANCH   6   7
ENDBRANCH   5   6
BRANCH   5   9
ATOM      9  C   UNL     1      -1.327  22.878 -86.617  1.00  0.00     0.085 C 
BRANCH   9  10
ATOM     10  C   UNL     1      -2.212  24.074 -86.779  1.00  0.00     0.020 CG0
ATOM     11  G   UNL     1      -2.984  23.912 -88.062  1.00  0.00     0.000 G0
ENDBRANCH   9  10
ENDBRANCH   5   9
ENDBRANCH   4   5
ENDBRANCH   3   4
ENDBRANCH   1   3
BRANCH   1  12
ATOM     12  C   UNL     1      -2.996  23.930 -88.085  1.00  0.00     0.051 CG0
ATOM     13  G   UNL     1      -2.220  24.052 -86.799  1.00  0.00     0.000 G0
ENDBRANCH   1  12
BRANCH   1  14
ATOM     14  O   UNL     1      -4.968  23.066 -86.979  1.00  0.00    -0.486 OA
BRANCH  14  15
ATOM     15  C   UNL     1      -6.234  23.651 -87.043  1.00  0.00     0.124 A 
ATOM     16  C   UNL     1      -6.689  24.510 -88.022  1.00  0.00     0.008 A 
ATOM     17  C   UNL     1      -6.783  23.807 -85.782  1.00  0.00     0.047 A 
ATOM     18  C   UNL     1      -7.534  25.566 -87.710  1.00  0.00     0.009 A 
ATOM     19  C   UNL     1      -7.548  24.915 -85.452  1.00  0.00     0.004 A 
ATOM     20  C   UNL     1      -7.785  25.910 -86.390  1.00  0.00     0.001 A 
BRANCH  16  21
ATOM     21  C   UNL     1      -6.417  24.531 -89.470  1.00  0.00     0.120 C 
BRANCH  21  22
ATOM     22  N   UNL     1      -5.085  24.099 -89.813  1.00  0.00    -0.309 NA
ATOM     23  H   UNL     1      -4.992  24.106 -90.829  1.00  0.00     0.123 HD
BRANCH  22  24
ATOM     24  C   UNL     1      -4.789  22.774 -89.333  1.00  0.00     0.129 CG1
ATOM     25  G   UNL     1      -4.012  22.818 -88.024  1.00  0.00     0.000 G1
ENDBRANCH  22  24
ENDBRANCH  21  22
ENDBRANCH  16  21
ENDBRANCH  14  15
ENDBRANCH   1  14
TORSDOF 2
ENDMDL
MODEL 2
REMARK VINA RESULT:   -11.911     23.781     24.984
REMARK INTER + INTRA:          -1.879
REMARK INTER:                  -3.487
REMARK INTRA:                   1.608
REMARK UNBOUND:                19.085
REMARK SMILES C=CCN1CCC[C@]2(CC1)CNCc1ccccc1O2
REMARK SMILES IDX 8 1 9 3 10 4 4 5 3 6 2 7 1 8 5 9 6 10 7 12 20 14 19 15 14 16
REMARK SMILES IDX 18 17 15 18 17 19 16 20 13 21 12 22 11 24
REMARK H PARENT 12 23
REMARK Flexibility Score: 160.00
ROOT
ATOM      1  C   UNL     1     -15.850   6.496 -75.487  1.00  0.00     0.123 CG1
ATOM      2  G   UNL     1     -15.333   6.218 -76.893  1.00  0.00     0.000 G1
ENDROOT
BRANCH   1   3
ATOM      3  C   UNL     1     -14.732   6.561 -74.486  1.00  0.00     0.065 C 
BRANCH   3   4
ATOM      4  C   UNL     1     -15.026   7.470 -73.326  1.00  0.00     0.089 C 
BRANCH   4   5
ATOM      5  N   UNL     1     -16.312   7.251 -72.732  1.00  0.00    -0.300 NA
BRANCH   5   6
ATOM      6  C   UNL     1     -16.291   7.111 -71.304  1.00  0.00     0.111 C 
BRANCH   6   7
ATOM      7  C   UNL     1     -16.886   5.765 -71.010  1.00  0.00    -0.019 C 
ATOM      8  C   UNL     1     -17.024   5.335 -70.455  1.00  0.00     0.005 C 
ENDBRANCH   6   7
ENDBRANCH   5   6
BRANCH   5   9
ATOM      9  C   UNL     1     -17.361   8.078 -73.238  1.00  0.00     0.085 C 
BRANCH   9  10
ATOM     10  C   UNL     1     -17.835   7.713 -74.611  1.00  0.00     0.020 CG0
ATOM     11  G   UNL     1     -16.652   7.771 -75.542  1.00  0.00     0.000 G0
ENDBRANCH   9  10
ENDBRANCH   5   9
ENDBRANCH   4   5
ENDBRANCH   3   4
ENDBRANCH   1   3
BRANCH   1  12
ATOM     12  C   UNL     1     -16.652   7.767 -75.562  1.00  0.00     0.051 CG0
ATOM     13  G   UNL     1     -17.821   7.702 -74.614  1.00  0.00     0.000 G0
ENDBRANCH   1  12
BRANCH   1  14
ATOM     14  O   UNL     1     -16.656   5.384 -75.135  1.00  0.00    -0.486 OA
BRANCH  14  15
ATOM     15  C   UNL     1     -16.550   4.029 -75.453  1.00  0.00     0.124 A 
ATOM     16  C   UNL     1     -15.969   3.498 -76.587  1.00  0.00     0.008 A 
ATOM     17  C   UNL     1     -17.576   3.295 -74.884  1.00  0.00     0.047 A 
ATOM     18  C   UNL     1     -16.497   2.370 -77.199  1.00  0.00     0.009 A 
ATOM     19  C   UNL     1     -18.162   2.227 -75.546  1.00  0.00     0.004 A 
ATOM     20  C   UNL     1     -17.730   1.863 -76.813  1.00  0.00     0.001 A 
BRANCH  16  21
ATOM     21  C   UNL     1     -14.792   3.946 -77.351  1.00  0.00     0.120 C 
BRANCH  21  22
ATOM     22  N   UNL     1     -14.298   5.239 -76.944  1.00  0.00    -0.309 NA
ATOM     23  H   UNL     1     -13.913   5.159 -76.003  1.00  0.00     0.123 HD
BRANCH  22  24
ATOM     24  C   UNL     1     -15.324   6.249 -76.936  1.00  0.00     0.129 CG1
ATOM     25  G   UNL     1     -15.850   6.495 -75.528  1.00  0.00     0.000 G1
ENDBRANCH  22  24
ENDBRANCH  21  22
ENDBRANCH  16  21
ENDBRANCH  14  15
ENDBRANCH   1  14
TORSDOF 2
ENDMDL
MODEL 3
REMARK VINA RESULT:   -11.889     24.141     25.396
REMARK INTER + INTRA:          -1.839
REMARK INTER:                  -3.498
REMARK INTRA:                   1.659
REMARK UNBOUND:                19.085
REMARK SMILES C=CCN1CCC[C@]2(CC1)CNCc1ccccc1O2
REMARK SMILES IDX 8 1 9 3 10 4 4 5 3 6 2 7 1 8 5 9 6 10 7 12 20 14 19 15 14 16
REMARK SMILES IDX 18 17 15 18 17 19 16 20 13 21 12 22 11 24
REMARK H PARENT 12 23
REMARK Flexibility Score: 160.00
ROOT
ATOM      1  C   UNL     1     -14.492   5.060 -74.741  1.00  0.00     0.123 CG1
ATOM      2  G   UNL     1     -14.430   5.999 -73.543  1.00  0.00     0.000 G1
ENDROOT
BRANCH   1   3
ATOM      3  C   UNL     1     -15.159   5.708 -75.921  1.00  0.00     0.065 C 
BRANCH   3   4
ATOM      4  C   UNL     1     -15.739   4.718 -76.892  1.00  0.00     0.089 C 
BRANCH   4   5
ATOM      5  N   UNL     1     -14.777   4.175 -77.805  1.00  0.00    -0.300 NA
BRANCH   5   6
ATOM      6  C   UNL     1     -15.057   4.435 -79.188  1.00  0.00     0.111 C 
BRANCH   6   7
ATOM      7  C   UNL     1     -15.929   3.306 -79.654  1.00  0.00    -0.019 C 
ATOM      8  C   UNL     1     -16.148   2.996 -80.260  1.00  0.00     0.005 C 
ENDBRANCH   6   7
ENDBRANCH   5   6
BRANCH   5   9
ATOM      9  C   UNL     1     -13.411   4.357 -77.425  1.00  0.00     0.085 C 
BRANCH   9  10
ATOM     10  C   UNL     1     -13.008   3.627 -76.182  1.00  0.00     0.020 CG0
ATOM     11  G   UNL     1     -13.075   4.597 -75.030  1.00  0.00     0.000 G0
ENDBRANCH   9  10
ENDBRANCH   5   9
ENDBRANCH   4   5
ENDBRANCH   3   4
ENDBRANCH   1   3
BRANCH   1  12
ATOM     12  C   UNL     1     -13.081   4.623 -75.026  1.00  0.00     0.051 CG0
ATOM     13  G   UNL     1     -13.059   3.645 -76.172  1.00  0.00     0.000 G0
ENDBRANCH   1  12
BRANCH   1  14
ATOM     14  O   UNL     1     -15.312   3.972 -74.349  1.00  0.00    -0.486 OA
BRANCH  14  15
ATOM     15  C   UNL     1     -16.241   3.841 -73.315  1.00  0.00     0.124 A 
ATOM     16  C   UNL     1     -16.495   4.765 -72.322  1.00  0.00     0.008 A 
ATOM     17  C   UNL     1     -16.452   2.513 -72.990  1.00  0.00     0.047 A 
ATOM     18  C   UNL     1     -16.793   4.360 -71.029  1.00  0.00     0.009 A 
ATOM     19  C   UNL     1     -16.655   2.106 -71.680  1.00  0.00     0.004 A 
ATOM     20  C   UNL     1     -16.651   3.033 -70.648  1.00  0.00     0.001 A 
BRANCH  16  21
ATOM     21  C   UNL     1     -16.499   6.237 -72.371  1.00  0.00     0.120 C 
BRANCH  21  22
ATOM     22  N   UNL     1     -15.621   6.784 -73.377  1.00  0.00    -0.309 NA
ATOM     23  H   UNL     1     -16.115   6.792 -74.270  1.00  0.00     0.123 HD
BRANCH  22  24
ATOM     24  C   UNL     1     -14.409   6.023 -73.529  1.00  0.00     0.129 CG1
ATOM     25  G   UNL     1     -14.493   5.075 -74.718  1.00  0.00     0.000 G1
ENDBRANCH  22  24
ENDBRANCH  21  22
ENDBRANCH  16  21
ENDBRANCH  14  15
ENDBRANCH   1  14
TORSDOF 2
ENDMDL
MODEL 4
REMARK VINA RESULT:   -11.826     29.693     31.373
REMARK INTER + INTRA:          -1.729
REMARK INTER:                  -3.824
REMARK INTRA:                   2.095
REMARK UNBOUND:                19.085
REMARK SMILES C=CCN1CCC[C@]2(CC1)CNCc1ccccc1O2
REMARK SMILES IDX 8 1 9 3 10 4 4 5 3 6 2 7 1 8 5 9 6 10 7 12 20 14 19 15 14 16
REMARK SMILES IDX 18 17 15 18 17 19 16 20 13 21 12 22 11 24
REMARK H PARENT 12 23
REMARK Flexibility Score: 160.00
ROOT
ATOM      1  C   UNL     1     -24.110  11.710 -66.795  1.00  0.00     0.123 CG1
ATOM      2  G   UNL     1     -24.542  12.211 -68.167  1.00  0.00     0.000 G1
ENDROOT
BRANCH   1   3
ATOM      3  C   UNL     1     -25.234  11.022 -66.075  1.00  0.00     0.065 C 
BRANCH   3   4
ATOM      4  C   UNL     1     -24.980  10.854 -64.603  1.00  0.00     0.089 C 
BRANCH   4   5
ATOM      5  N   UNL     1     -24.258   9.660 -64.274  1.00  0.00    -0.300 NA
BRANCH   5   6
ATOM      6  C   UNL     1     -25.067   8.478 -64.197  1.00  0.00     0.111 C 
BRANCH   6   7
ATOM      7  C   UNL     1     -24.814   7.889 -62.840  1.00  0.00    -0.019 C 
ATOM      8  C   UNL     1     -25.066   7.378 -62.408  1.00  0.00     0.005 C 
ENDBRANCH   6   7
ENDBRANCH   5   6
BRANCH   5   9
ATOM      9  C   UNL     1     -23.018   9.493 -64.965  1.00  0.00     0.085 C 
BRANCH   9  10
ATOM     10  C   UNL     1     -23.139   9.431 -66.456  1.00  0.00     0.020 CG0
ATOM     11  G   UNL     1     -22.906  10.817 -67.000  1.00  0.00     0.000 G0
ENDBRANCH   9  10
ENDBRANCH   5   9
ENDBRANCH   4   5
ENDBRANCH   3   4
ENDBRANCH   1   3
BRANCH   1  12
ATOM     12  C   UNL     1     -22.914  10.822 -67.012  1.00  0.00     0.051 CG0
ATOM     13  G   UNL     1     -23.164   9.458 -66.426  1.00  0.00     0.000 G0
ENDBRANCH   1  12
BRANCH   1  14
ATOM     14  O   UNL     1     -23.779  12.863 -66.039  1.00  0.00    -0.486 OA
BRANCH  14  15
ATOM     15  C   UNL     1     -24.331  14.145 -66.021  1.00  0.00     0.124 A 
ATOM     16  C   UNL     1     -24.995  14.764 -67.060  1.00  0.00     0.008 A 
ATOM     17  C   UNL     1     -23.658  14.973 -65.139  1.00  0.00     0.047 A 
ATOM     18  C   UNL     1     -24.858  16.127 -67.285  1.00  0.00     0.009 A 
ATOM     19  C   UNL     1     -23.443  16.314 -65.418  1.00  0.00     0.004 A 
ATOM     20  C   UNL     1     -23.902  16.868 -66.604  1.00  0.00     0.001 A 
BRANCH  16  21
ATOM     21  C   UNL     1     -25.897  14.203 -68.081  1.00  0.00     0.120 C 
BRANCH  21  22
ATOM     22  N   UNL     1     -25.874  12.762 -68.142  1.00  0.00    -0.309 NA
ATOM     23  H   UNL     1     -26.354  12.394 -67.321  1.00  0.00     0.123 HD
BRANCH  22  24
ATOM     24  C   UNL     1     -24.538  12.229 -68.171  1.00  0.00     0.129 CG1
ATOM     25  G   UNL     1     -24.115  11.714 -66.802  1.00  0.00     0.000 G1
ENDBRANCH  22  24
ENDBRANCH  21  22
ENDBRANCH  16  21
ENDBRANCH  14  15
ENDBRANCH   1  14
TORSDOF 2
ENDMDL
MODEL 5
REMARK VINA RESULT:   -11.788     31.641     33.568
REMARK INTER + INTRA:          -1.662
REMARK INTER:                  -4.221
REMARK INTRA:                   2.558
REMARK UNBOUND:                19.085
REMARK SMILES C=CCN1CCC[C@]2(CC1)CNCc1ccccc1O2
REMARK SMILES IDX 8 1 9 3 10 4 4 5 3 6 2 7 1 8 5 9 6 10 7 12 20 14 19 15 14 16
REMARK SMILES IDX 18 17 15 18 17 19 16 20 13 21 12 22 11 24
REMARK H PARENT 12 23
REMARK Flexibility Score: 160.00
ROOT
ATOM      1  C   UNL     1     -25.484  11.171 -65.727  1.00  0.00     0.123 CG1
ATOM      2  G   UNL     1     -24.498  10.171 -66.316  1.00  0.00     0.000 G1
ENDROOT
BRANCH   1   3
ATOM      3  C   UNL     1     -24.798  12.429 -65.275  1.00  0.00     0.065 C 
BRANCH   3   4
ATOM      4  C   UNL     1     -25.160  13.632 -66.100  1.00  0.00     0.089 C 
BRANCH   4   5
ATOM      5  N   UNL     1     -26.438  14.192 -65.774  1.00  0.00    -0.300 NA
BRANCH   5   6
ATOM      6  C   UNL     1     -26.463  15.627 -65.726  1.00  0.00     0.111 C 
BRANCH   6   7
ATOM      7  C   UNL     1     -27.681  15.994 -64.930  1.00  0.00    -0.019 C 
ATOM      8  C   UNL     1     -27.967  15.888 -64.283  1.00  0.00     0.005 C 
ENDBRANCH   6   7
ENDBRANCH   5   6
BRANCH   5   9
ATOM      9  C   UNL     1     -27.550  13.596 -66.443  1.00  0.00     0.085 C 
BRANCH   9  10
ATOM     10  C   UNL     1     -27.716  12.129 -66.189  1.00  0.00     0.020 CG0
ATOM     11  G   UNL     1     -26.528  11.417 -66.783  1.00  0.00     0.000 G0
ENDBRANCH   9  10
ENDBRANCH   5   9
ENDBRANCH   4   5
ENDBRANCH   3   4
ENDBRANCH   1   3
BRANCH   1  12
ATOM     12  C   UNL     1     -26.536  11.415 -66.775  1.00  0.00     0.051 CG0
ATOM     13  G   UNL     1     -27.712  12.141 -66.175  1.00  0.00     0.000 G0
ENDBRANCH   1  12
BRANCH   1  14
ATOM     14  O   UNL     1     -26.026  10.557 -64.570  1.00  0.00    -0.486 OA
BRANCH  14  15
ATOM     15  C   UNL     1     -25.443   9.745 -63.596  1.00  0.00     0.124 A 
ATOM     16  C   UNL     1     -24.411   8.849 -63.790  1.00  0.00     0.008 A 
ATOM     17  C   UNL     1     -26.339   9.445 -62.585  1.00  0.00     0.047 A 
ATOM     18  C   UNL     1     -24.375   7.642 -63.106  1.00  0.00     0.009 A 
ATOM     19  C   UNL     1     -26.357   8.201 -61.973  1.00  0.00     0.004 A 
ATOM     20  C   UNL     1     -25.466   7.212 -62.365  1.00  0.00     0.001 A 
BRANCH  16  21
ATOM     21  C   UNL     1     -23.235   8.929 -64.673  1.00  0.00     0.120 C 
BRANCH  21  22
ATOM     22  N   UNL     1     -23.261  10.062 -65.567  1.00  0.00    -0.309 NA
ATOM     23  H   UNL     1     -23.167  10.914 -65.014  1.00  0.00     0.123 HD
BRANCH  22  24
ATOM     24  C   UNL     1     -24.478  10.140 -66.330  1.00  0.00     0.129 CG1
ATOM     25  G   UNL     1     -25.448  11.148 -65.727  1.00  0.00     0.000 G1
ENDBRANCH  22  24
ENDBRANCH  21  22
ENDBRANCH  16  21
ENDBRANCH  14  15
ENDBRANCH   1  14
TORSDOF 2
ENDMDL
MODEL 6
REMARK VINA RESULT:   -11.764     27.572     29.888
REMARK INTER + INTRA:          -1.619
REMARK INTER:                  -3.333
REMARK INTRA:                   1.714
REMARK UNBOUND:                19.085
REMARK SMILES C=CCN1CCC[C@]2(CC1)CNCc1ccccc1O2
REMARK SMILES IDX 8 1 9 3 10 4 4 5 3 6 2 7 1 8 5 9 6 10 7 12 20 14 19 15 14 16
REMARK SMILES IDX 18 17 15 18 17 19 16 20 13 21 12 22 11 24
REMARK H PARENT 12 23
REMARK Flexibility Score: 160.00
ROOT
ATOM      1  C   UNL     1     -23.074  22.107 -64.067  1.00  0.00     0.123 CG1
ATOM      2  G   UNL     1     -23.704  22.184 -62.682  1.00  0.00     0.000 G1
ENDROOT
BRANCH   1   3
ATOM      3  C   UNL     1     -22.111  23.236 -64.303  1.00  0.00     0.065 C 
BRANCH   3   4
ATOM      4  C   UNL     1     -22.052  23.674 -65.739  1.00  0.00     0.089 C 
BRANCH   4   5
ATOM      5  N   UNL     1     -22.023  22.588 -66.674  1.00  0.00    -0.300 NA
BRANCH   5   6
ATOM      6  C   UNL     1     -21.751  22.976 -68.028  1.00  0.00     0.111 C 
BRANCH   6   7
ATOM      7  C   UNL     1     -23.088  23.194 -68.675  1.00  0.00    -0.019 C 
ATOM      8  C   UNL     1     -23.562  22.850 -69.085  1.00  0.00     0.005 C 
ENDBRANCH   6   7
ENDBRANCH   5   6
BRANCH   5   9
ATOM      9  C   UNL     1     -21.319  21.427 -66.231  1.00  0.00     0.085 C 
BRANCH   9  10
ATOM     10  C   UNL     1     -22.185  20.372 -65.613  1.00  0.00     0.020 CG0
ATOM     11  G   UNL     1     -22.454  20.769 -64.185  1.00  0.00     0.000 G0
ENDBRANCH   9  10
ENDBRANCH   5   9
ENDBRANCH   4   5
ENDBRANCH   3   4
ENDBRANCH   1   3
BRANCH   1  12
ATOM     12  C   UNL     1     -22.435  20.750 -64.181  1.00  0.00     0.051 CG0
ATOM     13  G   UNL     1     -22.190  20.408 -65.627  1.00  0.00     0.000 G0
ENDBRANCH   1  12
BRANCH   1  14
ATOM     14  O   UNL     1     -24.135  22.269 -64.994  1.00  0.00    -0.486 OA
BRANCH  14  15
ATOM     15  C   UNL     1     -25.333  22.982 -64.912  1.00  0.00     0.124 A 
ATOM     16  C   UNL     1     -25.970  23.379 -63.754  1.00  0.00     0.008 A 
ATOM     17  C   UNL     1     -26.140  22.741 -66.010  1.00  0.00     0.047 A 
ATOM     18  C   UNL     1     -27.355  23.381 -63.666  1.00  0.00     0.009 A 
ATOM     19  C   UNL     1     -27.519  22.651 -65.894  1.00  0.00     0.004 A 
ATOM     20  C   UNL     1     -28.132  22.800 -64.659  1.00  0.00     0.001 A 
BRANCH  16  21
ATOM     21  C   UNL     1     -25.412  23.832 -62.468  1.00  0.00     0.120 C 
BRANCH  21  22
ATOM     22  N   UNL     1     -24.008  23.540 -62.314  1.00  0.00    -0.309 NA
ATOM     23  H   UNL     1     -23.477  24.170 -62.916  1.00  0.00     0.123 HD
BRANCH  22  24
ATOM     24  C   UNL     1     -23.680  22.184 -62.664  1.00  0.00     0.129 CG1
ATOM     25  G   UNL     1     -23.083  22.099 -64.063  1.00  0.00     0.000 G1
ENDBRANCH  22  24
ENDBRANCH  21  22
ENDBRANCH  16  21
ENDBRANCH  14  15
ENDBRANCH   1  14
TORSDOF 2
ENDMDL
MODEL 7
REMARK VINA RESULT:   -11.758     26.602     28.645
REMARK INTER + INTRA:          -1.609
REMARK INTER:                  -3.520
REMARK INTRA:                   1.911
REMARK UNBOUND:                19.085
REMARK SMILES C=CCN1CCC[C@]2(CC1)CNCc1ccccc1O2
REMARK SMILES IDX 8 1 9 3 10 4 4 5 3 6 2 7 1 8 5 9 6 10 7 12 20 14 19 15 14 16
REMARK SMILES IDX 18 17 15 18 17 19 16 20 13 21 12 22 11 24
REMARK H PARENT 12 23
REMARK Flexibility Score: 160.00
ROOT
ATOM      1  C   UNL     1     -21.815  20.933 -66.363  1.00  0.00     0.123 CG1
ATOM      2  G   UNL     1     -21.465  19.565 -66.935  1.00  0.00     0.000 G1
ENDROOT
BRANCH   1   3
ATOM      3  C   UNL     1     -21.386  21.062 -64.929  1.00  0.00     0.065 C 
BRANCH   3   4
ATOM      4  C   UNL     1     -22.302  21.929 -64.112  1.00  0.00     0.089 C 
BRANCH   4   5
ATOM      5  N   UNL     1     -22.410  23.273 -64.598  1.00  0.00    -0.300 NA
BRANCH   5   6
ATOM      6  C   UNL     1     -22.721  24.246 -63.591  1.00  0.00     0.111 C 
BRANCH   6   7
ATOM      7  C   UNL     1     -24.118  23.941 -63.135  1.00  0.00    -0.019 C 
ATOM      8  C   UNL     1     -24.621  24.198 -62.696  1.00  0.00     0.005 C 
ENDBRANCH   6   7
ENDBRANCH   5   6
BRANCH   5   9
ATOM      9  C   UNL     1     -21.391  23.668 -65.519  1.00  0.00     0.085 C 
BRANCH   9  10
ATOM     10  C   UNL     1     -21.697  23.364 -66.953  1.00  0.00     0.020 CG0
ATOM     11  G   UNL     1     -21.195  21.975 -67.251  1.00  0.00     0.000 G0
ENDBRANCH   9  10
ENDBRANCH   5   9
ENDBRANCH   4   5
ENDBRANCH   3   4
ENDBRANCH   1   3
BRANCH   1  12
ATOM     12  C   UNL     1     -21.182  21.958 -67.265  1.00  0.00     0.051 CG0
ATOM     13  G   UNL     1     -21.704  23.333 -66.938  1.00  0.00     0.000 G0
ENDBRANCH   1  12
BRANCH   1  14
ATOM     14  O   UNL     1     -23.230  21.018 -66.380  1.00  0.00    -0.486 OA
BRANCH  14  15
ATOM     15  C   UNL     1     -24.217  20.040 -66.238  1.00  0.00     0.124 A 
ATOM     16  C   UNL     1     -24.065  18.688 -66.464  1.00  0.00     0.008 A 
ATOM     17  C   UNL     1     -25.480  20.563 -66.448  1.00  0.00     0.047 A 
ATOM     18  C   UNL     1     -25.091  17.937 -67.020  1.00  0.00     0.009 A 
ATOM     19  C   UNL     1     -26.471  19.838 -67.091  1.00  0.00     0.004 A 
ATOM     20  C   UNL     1     -26.218  18.552 -67.547  1.00  0.00     0.001 A 
BRANCH  16  21
ATOM     21  C   UNL     1     -22.912  17.805 -66.217  1.00  0.00     0.120 C 
BRANCH  21  22
ATOM     22  N   UNL     1     -21.685  18.519 -65.958  1.00  0.00    -0.309 NA
ATOM     23  H   UNL     1     -21.743  18.941 -65.031  1.00  0.00     0.123 HD
BRANCH  22  24
ATOM     24  C   UNL     1     -21.431  19.557 -66.921  1.00  0.00     0.129 CG1
ATOM     25  G   UNL     1     -21.810  20.927 -66.374  1.00  0.00     0.000 G1
ENDBRANCH  22  24
ENDBRANCH  21  22
ENDBRANCH  16  21
ENDBRANCH  14  15
ENDBRANCH   1  14
TORSDOF 2
ENDMDL
MODEL 8
REMARK VINA RESULT:   -11.607     19.779     21.804
REMARK INTER + INTRA:          -1.343
REMARK INTER:                  -3.598
REMARK INTRA:                   2.255
REMARK UNBOUND:                19.085
REMARK SMILES C=CCN1CCC[C@]2(CC1)CNCc1ccccc1O2
REMARK SMILES IDX 8 1 9 3 10 4 4 5 3 6 2 7 1 8 5 9 6 10 7 12 20 14 19 15 14 16
REMARK SMILES IDX 18 17 15 18 17 19 16 20 13 21 12 22 11 24
REMARK H PARENT 12 23
REMARK Flexibility Score: 160.00
ROOT
ATOM      1  C   UNL     1      -2.916   3.909 -79.121  1.00  0.00     0.123 CG1
ATOM      2  G   UNL     1      -3.830   3.866 -77.904  1.00  0.00     0.000 G1
ENDROOT
BRANCH   1   3
ATOM      3  C   UNL     1      -3.277   5.036 -80.048  1.00  0.00     0.065 C 
BRANCH   3   4
ATOM      4  C   UNL     1      -2.623   4.927 -81.396  1.00  0.00     0.089 C 
BRANCH   4   5
ATOM      5  N   UNL     1      -1.339   4.292 -81.366  1.00  0.00    -0.300 NA
BRANCH   5   6
ATOM      6  C   UNL     1      -0.865   3.846 -82.645  1.00  0.00     0.111 C 
BRANCH   6   7
ATOM      7  C   UNL     1      -0.506   2.399 -82.474  1.00  0.00    -0.019 C 
ATOM      8  C   UNL     1      -0.523   1.783 -82.837  1.00  0.00     0.005 C 
ENDBRANCH   6   7
ENDBRANCH   5   6
BRANCH   5   9
ATOM      9  C   UNL     1      -0.358   4.947 -80.559  1.00  0.00     0.085 C 
BRANCH   9  10
ATOM     10  C   UNL     1      -0.792   5.221 -79.152  1.00  0.00     0.020 CG0
ATOM     11  G   UNL     1      -1.491   3.992 -78.633  1.00  0.00     0.000 G0
ENDBRANCH   9  10
ENDBRANCH   5   9
ENDBRANCH   4   5
ENDBRANCH   3   4
ENDBRANCH   1   3
BRANCH   1  12
ATOM     12  C   UNL     1      -1.505   3.997 -78.604  1.00  0.00     0.051 CG0
ATOM     13  G   UNL     1      -0.826   5.227 -79.148  1.00  0.00     0.000 G0
ENDBRANCH   1  12
BRANCH   1  14
ATOM     14  O   UNL     1      -3.143   2.702 -79.830  1.00  0.00    -0.486 OA
BRANCH  14  15
ATOM     15  C   UNL     1      -4.274   1.890 -79.933  1.00  0.00     0.124 A 
ATOM     16  C   UNL     1      -5.356   1.884 -79.077  1.00  0.00     0.008 A 
ATOM     17  C   UNL     1      -3.982   0.696 -80.567  1.00  0.00     0.047 A 
ATOM     18  C   UNL     1      -6.010   0.702 -78.761  1.00  0.00     0.009 A 
ATOM     19  C   UNL     1      -4.571  -0.498 -80.180  1.00  0.00     0.004 A 
ATOM     20  C   UNL     1      -5.479  -0.526 -79.131  1.00  0.00     0.001 A 
BRANCH  16  21
ATOM     21  C   UNL     1      -6.006   2.993 -78.358  1.00  0.00     0.120 C 
BRANCH  21  22
ATOM     22  N   UNL     1      -5.186   4.176 -78.259  1.00  0.00    -0.309 NA
ATOM     23  H   UNL     1      -5.181   4.645 -79.164  1.00  0.00     0.123 HD
BRANCH  22  24
ATOM     24  C   UNL     1      -3.828   3.881 -77.887  1.00  0.00     0.129 CG1
ATOM     25  G   UNL     1      -2.903   3.902 -79.097  1.00  0.00     0.000 G1
ENDBRANCH  22  24
ENDBRANCH  21  22
ENDBRANCH  16  21
ENDBRANCH  14  15
ENDBRANCH   1  14
TORSDOF 2
ENDMDL
MODEL 9
REMARK VINA RESULT:   -11.462     24.048     25.593
REMARK INTER + INTRA:          -1.087
REMARK INTER:                  -3.542
REMARK INTRA:                   2.454
REMARK UNBOUND:                19.085
REMARK SMILES C=CCN1CCC[C@]2(CC1)CNCc1ccccc1O2
REMARK SMILES IDX 8 1 9 3 10 4 4 5 3 6 2 7 1 8 5 9 6 10 7 12 20 14 19 15 14 16
REMARK SMILES IDX 18 17 15 18 17 19 16 20 13 21 12 22 11 24
REMARK H PARENT 12 23
REMARK Flexibility Score: 160.00
ROOT
ATOM      1  C   UNL     1     -13.381   1.958 -78.829  1.00  0.00     0.123 CG1
ATOM      2  G   UNL     1     -12.035   1.429 -78.354  1.00  0.00     0.000 G1
ENDROOT
BRANCH   1   3
ATOM      3  C   UNL     1     -14.479   1.643 -77.852  1.00  0.00     0.065 C 
BRANCH   3   4
ATOM      4  C   UNL     1     -15.853   1.903 -78.401  1.00  0.00     0.089 C 
BRANCH   4   5
ATOM      5  N   UNL     1     -15.910   3.002 -79.318  1.00  0.00    -0.300 NA
BRANCH   5   6
ATOM      6  C   UNL     1     -17.108   3.058 -80.106  1.00  0.00     0.111 C 
BRANCH   6   7
ATOM      7  C   UNL     1     -16.769   2.427 -81.425  1.00  0.00    -0.019 C 
ATOM      8  C   UNL     1     -16.806   1.794 -81.756  1.00  0.00     0.005 C 
ENDBRANCH   6   7
ENDBRANCH   5   6
BRANCH   5   9
ATOM      9  C   UNL     1     -15.484   4.258 -78.787  1.00  0.00     0.085 C 
BRANCH   9  10
ATOM     10  C   UNL     1     -14.110   4.248 -78.191  1.00  0.00     0.020 CG0
ATOM     11  G   UNL     1     -13.222   3.421 -79.084  1.00  0.00     0.000 G0
ENDBRANCH   9  10
ENDBRANCH   5   9
ENDBRANCH   4   5
ENDBRANCH   3   4
ENDBRANCH   1   3
BRANCH   1  12
ATOM     12  C   UNL     1     -13.209   3.433 -79.070  1.00  0.00     0.051 CG0
ATOM     13  G   UNL     1     -14.116   4.220 -78.160  1.00  0.00     0.000 G0
ENDBRANCH   1  12
BRANCH   1  14
ATOM     14  O   UNL     1     -13.681   1.260 -80.026  1.00  0.00    -0.486 OA
BRANCH  14  15
ATOM     15  C   UNL     1     -13.412  -0.052 -80.422  1.00  0.00     0.124 A 
ATOM     16  C   UNL     1     -12.392  -0.855 -79.954  1.00  0.00     0.008 A 
ATOM     17  C   UNL     1     -13.834  -0.284 -81.720  1.00  0.00     0.047 A 
ATOM     18  C   UNL     1     -11.732  -1.736 -80.798  1.00  0.00     0.009 A 
ATOM     19  C   UNL     1     -13.114  -1.092 -82.586  1.00  0.00     0.004 A 
ATOM     20  C   UNL     1     -11.935  -1.695 -82.170  1.00  0.00     0.001 A 
BRANCH  16  21
ATOM     21  C   UNL     1     -11.807  -0.959 -78.606  1.00  0.00     0.120 C 
BRANCH  21  22
ATOM     22  N   UNL     1     -12.178   0.125 -77.730  1.00  0.00    -0.309 NA
ATOM     23  H   UNL     1     -13.154   0.005 -77.460  1.00  0.00     0.123 HD
BRANCH  22  24
ATOM     24  C   UNL     1     -12.027   1.416 -78.349  1.00  0.00     0.129 CG1
ATOM     25  G   UNL     1     -13.365   1.963 -78.827  1.00  0.00     0.000 G1
ENDBRANCH  22  24
ENDBRANCH  21  22
ENDBRANCH  16  21
ENDBRANCH  14  15
ENDBRANCH   1  14
TORSDOF 2
ENDMDL
