MODEL 1
REMARK VINA RESULT:   -12.082      0.000      0.000
REMARK INTER + INTRA:          -3.694
REMARK INTER:                  -5.446
REMARK INTRA:                   1.752
REMARK UNBOUND:                18.983
REMARK SMILES CN(C)C(=O)CN1CCOCC2(CCN(c3ncc4c(c3C#N)CCCNC4)CC2)C1
REMARK SMILES IDX 12 1 13 2 14 3 15 4 29 5 30 6 31 7 7 8 6 9 4 10 1 11 2 12
REMARK SMILES IDX 3 13 5 14 8 15 11 17 10 18 9 19 16 21 17 22 21 23 18 24
REMARK SMILES IDX 20 25 19 26 22 27 23 28 24 29 25 30 28 32 27 33 26 35
REMARK H PARENT 27 34
REMARK Flexibility Score: 180.00
ROOT
ATOM      1  C   UNL     1     -22.185  11.010 -68.609  1.00  0.00     0.010 C 
ATOM      2  C   UNL     1     -22.043  12.128 -67.612  1.00  0.00     0.032 C 
ATOM      3  C   UNL     1     -23.276  12.199 -66.766  1.00  0.00     0.119 C 
ATOM      4  N   UNL     1     -23.704  10.917 -66.251  1.00  0.00    -0.355 N 
ATOM      5  C   UNL     1     -23.679   9.778 -67.164  1.00  0.00     0.119 C 
ATOM      6  C   UNL     1     -22.291   9.724 -67.794  1.00  0.00     0.032 C 
ENDROOT
BRANCH   1   7
ATOM      7  C   UNL     1     -21.019  10.871 -69.536  1.00  0.00     0.094 C 
BRANCH   7   8
ATOM      8  N   UNL     1     -21.143  11.626 -70.754  1.00  0.00    -0.292 NA
BRANCH   8   9
ATOM      9  C   UNL     1     -19.815  11.938 -71.254  1.00  0.00     0.185 C 
BRANCH   9  10
ATOM     10  C   UNL     1     -19.660  13.400 -71.533  1.00  0.00     0.236 C 
ATOM     11  C   UNL     1     -18.507  15.545 -71.209  1.00  0.00     0.146 C 
ATOM     12  N   UNL     1     -18.449  14.086 -71.193  1.00  0.00    -0.348 N 
ATOM     13  C   UNL     1     -17.188  13.483 -71.550  1.00  0.00     0.146 C 
ATOM     14  O   UNL     1     -20.230  13.817 -72.587  1.00  0.00    -0.273 OA
ENDBRANCH   9  10
ENDBRANCH   8   9
BRANCH   8  15
ATOM     15  C   UNL     1     -21.801  10.859 -71.809  1.00  0.00     0.113 CG0
ATOM     16  G   UNL     1     -23.296  10.996 -71.582  1.00  0.00     0.000 G0
ENDBRANCH   8  15
ENDBRANCH   7   8
ENDBRANCH   1   7
BRANCH   1  17
ATOM     17  C   UNL     1     -23.513  11.121 -69.348  1.00  0.00     0.168 C 
BRANCH  17  18
ATOM     18  O   UNL     1     -23.596  10.242 -70.414  1.00  0.00    -0.379 OA
BRANCH  18  19
ATOM     19  C   UNL     1     -23.315  10.991 -71.567  1.00  0.00     0.175 CG0
ATOM     20  G   UNL     1     -21.820  10.861 -71.792  1.00  0.00     0.000 G0
ENDBRANCH  18  19
ENDBRANCH  17  18
ENDBRANCH   1  17
BRANCH   4  21
ATOM     21  C   UNL     1     -24.801  10.943 -65.330  1.00  0.00     0.146 A 
ATOM     22  N   UNL     1     -25.912  11.678 -65.537  1.00  0.00    -0.238 NA
ATOM     23  C   UNL     1     -24.859  10.070 -64.248  1.00  0.00     0.098 A 
ATOM     24  C   UNL     1     -27.103  11.385 -64.975  1.00  0.00     0.119 A 
ATOM     25  C   UNL     1     -26.032   9.872 -63.540  1.00  0.00    -0.020 A 
ATOM     26  C   UNL     1     -27.217  10.389 -64.038  1.00  0.00    -0.011 A 
BRANCH  23  27
ATOM     27  C   UNL     1     -23.713   9.285 -63.891  1.00  0.00     0.103 C 
ATOM     28  N   UNL     1     -22.689   8.743 -63.999  1.00  0.00    -0.192 NA
ENDBRANCH  23  27
BRANCH  25  29
ATOM     29  C   UNL     1     -25.895   8.893 -62.422  1.00  0.00     0.039 C 
BRANCH  29  30
ATOM     30  C   UNL     1     -26.871   7.754 -62.673  1.00  0.00     0.020 CG1
ATOM     31  G   UNL     1     -28.291   8.140 -62.364  1.00  0.00     0.000 G1
ENDBRANCH  29  30
ENDBRANCH  25  29
BRANCH  26  32
ATOM     32  C   UNL     1     -28.564  10.271 -63.420  1.00  0.00     0.118 C 
BRANCH  32  33
ATOM     33  N   UNL     1     -28.501   9.563 -62.144  1.00  0.00    -0.313 NA
ATOM     34  H   UNL     1     -27.716   9.924 -61.601  1.00  0.00     0.123 HD
BRANCH  33  35
ATOM     35  C   UNL     1     -28.320   8.138 -62.352  1.00  0.00     0.081 CG1
ATOM     36  G   UNL     1     -26.894   7.770 -62.656  1.00  0.00     0.000 G1
ENDBRANCH  33  35
ENDBRANCH  32  33
ENDBRANCH  26  32
ENDBRANCH   4  21
TORSDOF 4
ENDMDL
MODEL 2
REMARK VINA RESULT:   -11.983     13.113     17.861
REMARK INTER + INTRA:          -3.508
REMARK INTER:                  -4.944
REMARK INTRA:                   1.436
REMARK UNBOUND:                18.983
REMARK SMILES CN(C)C(=O)CN1CCOCC2(CCN(c3ncc4c(c3C#N)CCCNC4)CC2)C1
REMARK SMILES IDX 12 1 13 2 14 3 15 4 29 5 30 6 31 7 7 8 6 9 4 10 1 11 2 12
REMARK SMILES IDX 3 13 5 14 8 15 11 17 10 18 9 19 16 21 17 22 21 23 18 24
REMARK SMILES IDX 20 25 19 26 22 27 23 28 24 29 25 30 28 32 27 33 26 35
REMARK H PARENT 27 34
REMARK Flexibility Score: 180.00
ROOT
ATOM      1  C   UNL     1     -15.282   4.705 -76.974  1.00  0.00     0.010 C 
ATOM      2  C   UNL     1     -14.925   5.250 -78.330  1.00  0.00     0.032 C 
ATOM      3  C   UNL     1     -14.217   4.193 -79.119  1.00  0.00     0.119 C 
ATOM      4  N   UNL     1     -14.871   2.904 -79.086  1.00  0.00    -0.355 N 
ATOM      5  C   UNL     1     -15.385   2.438 -77.801  1.00  0.00     0.119 C 
ATOM      6  C   UNL     1     -16.250   3.552 -77.220  1.00  0.00     0.032 C 
ENDROOT
BRANCH   1   7
ATOM      7  C   UNL     1     -15.966   5.695 -76.083  1.00  0.00     0.094 C 
BRANCH   7   8
ATOM      8  N   UNL     1     -15.066   6.570 -75.379  1.00  0.00    -0.292 NA
BRANCH   8   9
ATOM      9  C   UNL     1     -15.717   7.854 -75.178  1.00  0.00     0.185 C 
BRANCH   9  10
ATOM     10  C   UNL     1     -17.207   7.735 -75.254  1.00  0.00     0.236 C 
ATOM     11  C   UNL     1     -19.372   7.108 -74.277  1.00  0.00     0.146 C 
ATOM     12  N   UNL     1     -17.986   7.521 -74.071  1.00  0.00    -0.348 N 
ATOM     13  C   UNL     1     -17.717   8.331 -72.909  1.00  0.00     0.146 C 
ATOM     14  O   UNL     1     -17.767   8.455 -76.137  1.00  0.00    -0.273 OA
ENDBRANCH   9  10
ENDBRANCH   8   9
BRANCH   8  15
ATOM     15  C   UNL     1     -14.746   6.067 -74.045  1.00  0.00     0.113 CG0
ATOM     16  G   UNL     1     -13.817   4.883 -74.236  1.00  0.00     0.000 G0
ENDBRANCH   8  15
ENDBRANCH   7   8
ENDBRANCH   1   7
BRANCH   1  17
ATOM     17  C   UNL     1     -14.064   4.067 -76.317  1.00  0.00     0.168 C 
BRANCH  17  18
ATOM     18  O   UNL     1     -13.338   4.973 -75.564  1.00  0.00    -0.379 OA
BRANCH  18  19
ATOM     19  C   UNL     1     -13.814   4.867 -74.249  1.00  0.00     0.175 CG0
ATOM     20  G   UNL     1     -14.745   6.049 -74.047  1.00  0.00     0.000 G0
ENDBRANCH  18  19
ENDBRANCH  17  18
ENDBRANCH   1  17
BRANCH   4  21
ATOM     21  C   UNL     1     -14.310   1.890 -79.928  1.00  0.00     0.146 A 
ATOM     22  N   UNL     1     -13.113   1.320 -79.686  1.00  0.00    -0.238 NA
ATOM     23  C   UNL     1     -15.050   1.306 -80.951  1.00  0.00     0.098 A 
ATOM     24  C   UNL     1     -12.774   0.098 -80.145  1.00  0.00     0.119 A 
ATOM     25  C   UNL     1     -14.640   0.134 -81.562  1.00  0.00    -0.020 A 
ATOM     26  C   UNL     1     -13.590  -0.583 -81.013  1.00  0.00    -0.011 A 
BRANCH  23  27
ATOM     27  C   UNL     1     -16.310   1.868 -81.342  1.00  0.00     0.103 C 
ATOM     28  N   UNL     1     -17.087   2.474 -81.963  1.00  0.00    -0.192 NA
ENDBRANCH  23  27
BRANCH  25  29
ATOM     29  C   UNL     1     -15.572  -0.338 -82.629  1.00  0.00     0.039 C 
BRANCH  29  30
ATOM     30  C   UNL     1     -16.061  -1.727 -82.245  1.00  0.00     0.020 CG1
ATOM     31  G   UNL     1     -15.019  -2.784 -82.481  1.00  0.00     0.000 G1
ENDBRANCH  29  30
ENDBRANCH  25  29
BRANCH  26  32
ATOM     32  C   UNL     1     -13.023  -1.858 -81.527  1.00  0.00     0.118 C 
BRANCH  32  33
ATOM     33  N   UNL     1     -13.686  -2.273 -82.761  1.00  0.00    -0.313 NA
ATOM     34  H   UNL     1     -13.784  -1.464 -83.375  1.00  0.00     0.123 HD
BRANCH  33  35
ATOM     35  C   UNL     1     -15.001  -2.820 -82.481  1.00  0.00     0.081 CG1
ATOM     36  G   UNL     1     -16.038  -1.756 -82.248  1.00  0.00     0.000 G1
ENDBRANCH  33  35
ENDBRANCH  32  33
ENDBRANCH  26  32
ENDBRANCH   4  21
TORSDOF 4
ENDMDL
MODEL 3
REMARK VINA RESULT:   -11.839      7.935     11.089
REMARK INTER + INTRA:          -3.237
REMARK INTER:                  -4.464
REMARK INTRA:                   1.227
REMARK UNBOUND:                18.983
REMARK SMILES CN(C)C(=O)CN1CCOCC2(CCN(c3ncc4c(c3C#N)CCCNC4)CC2)C1
REMARK SMILES IDX 12 1 13 2 14 3 15 4 29 5 30 6 31 7 7 8 6 9 4 10 1 11 2 12
REMARK SMILES IDX 3 13 5 14 8 15 11 17 10 18 9 19 16 21 17 22 21 23 18 24
REMARK SMILES IDX 20 25 19 26 22 27 23 28 24 29 25 30 28 32 27 33 26 35
REMARK H PARENT 27 34
REMARK Flexibility Score: 180.00
ROOT
ATOM      1  C   UNL     1     -17.233   3.780 -71.359  1.00  0.00     0.010 C 
ATOM      2  C   UNL     1     -18.173   4.092 -72.491  1.00  0.00     0.032 C 
ATOM      3  C   UNL     1     -19.200   5.077 -72.026  1.00  0.00     0.119 C 
ATOM      4  N   UNL     1     -18.645   6.204 -71.310  1.00  0.00    -0.355 N 
ATOM      5  C   UNL     1     -17.598   5.933 -70.328  1.00  0.00     0.119 C 
ATOM      6  C   UNL     1     -16.530   5.089 -71.016  1.00  0.00     0.032 C 
ENDROOT
BRANCH   1   7
ATOM      7  C   UNL     1     -16.181   2.772 -71.704  1.00  0.00     0.094 C 
BRANCH   7   8
ATOM      8  N   UNL     1     -16.579   1.407 -71.478  1.00  0.00    -0.292 NA
BRANCH   8   9
ATOM      9  C   UNL     1     -15.844   0.545 -72.388  1.00  0.00     0.185 C 
BRANCH   9  10
ATOM     10  C   UNL     1     -16.732  -0.489 -73.006  1.00  0.00     0.236 C 
ATOM     11  C   UNL     1     -18.783  -1.136 -74.193  1.00  0.00     0.146 C 
ATOM     12  N   UNL     1     -17.789  -0.109 -73.895  1.00  0.00    -0.348 N 
ATOM     13  C   UNL     1     -17.504   0.840 -74.943  1.00  0.00     0.146 C 
ATOM     14  O   UNL     1     -16.171  -1.592 -73.287  1.00  0.00    -0.273 OA
ENDBRANCH   9  10
ENDBRANCH   8   9
BRANCH   8  15
ATOM     15  C   UNL     1     -16.241   0.955 -70.131  1.00  0.00     0.113 CG0
ATOM     16  G   UNL     1     -17.318   1.490 -69.207  1.00  0.00     0.000 G0
ENDBRANCH   8  15
ENDBRANCH   7   8
ENDBRANCH   1   7
BRANCH   1  17
ATOM     17  C   UNL     1     -18.013   3.408 -70.104  1.00  0.00     0.168 C 
BRANCH  17  18
ATOM     18  O   UNL     1     -18.302   2.056 -70.046  1.00  0.00    -0.379 OA
BRANCH  18  19
ATOM     19  C   UNL     1     -17.342   1.481 -69.199  1.00  0.00     0.175 CG0
ATOM     20  G   UNL     1     -16.238   0.972 -70.108  1.00  0.00     0.000 G0
ENDBRANCH  18  19
ENDBRANCH  17  18
ENDBRANCH   1  17
BRANCH   4  21
ATOM     21  C   UNL     1     -19.566   7.242 -70.956  1.00  0.00     0.146 A 
ATOM     22  N   UNL     1     -20.212   7.273 -69.772  1.00  0.00    -0.238 NA
ATOM     23  C   UNL     1     -19.716   8.378 -71.744  1.00  0.00     0.098 A 
ATOM     24  C   UNL     1     -20.693   8.409 -69.227  1.00  0.00     0.119 A 
ATOM     25  C   UNL     1     -20.357   9.509 -71.269  1.00  0.00    -0.020 A 
ATOM     26  C   UNL     1     -20.674   9.592 -69.923  1.00  0.00    -0.011 A 
BRANCH  23  27
ATOM     27  C   UNL     1     -19.128   8.432 -73.052  1.00  0.00     0.103 C 
ATOM     28  N   UNL     1     -18.760   8.071 -74.096  1.00  0.00    -0.192 NA
ENDBRANCH  23  27
BRANCH  25  29
ATOM     29  C   UNL     1     -20.409  10.624 -72.261  1.00  0.00     0.039 C 
BRANCH  29  30
ATOM     30  C   UNL     1     -19.743  11.841 -71.634  1.00  0.00     0.020 CG1
ATOM     31  G   UNL     1     -20.635  12.531 -70.640  1.00  0.00     0.000 G1
ENDBRANCH  29  30
ENDBRANCH  25  29
BRANCH  26  32
ATOM     32  C   UNL     1     -21.353  10.725 -69.241  1.00  0.00     0.118 C 
BRANCH  32  33
ATOM     33  N   UNL     1     -20.550  11.943 -69.311  1.00  0.00    -0.313 NA
ATOM     34  H   UNL     1     -20.893  12.609 -68.618  1.00  0.00     0.123 HD
BRANCH  33  35
ATOM     35  C   UNL     1     -20.635  12.542 -70.630  1.00  0.00     0.081 CG1
ATOM     36  G   UNL     1     -19.750  11.863 -71.638  1.00  0.00     0.000 G1
ENDBRANCH  33  35
ENDBRANCH  32  33
ENDBRANCH  26  32
ENDBRANCH   4  21
TORSDOF 4
ENDMDL
MODEL 4
REMARK VINA RESULT:   -11.793     10.611     14.748
REMARK INTER + INTRA:          -3.152
REMARK INTER:                  -4.395
REMARK INTRA:                   1.242
REMARK UNBOUND:                18.983
REMARK SMILES CN(C)C(=O)CN1CCOCC2(CCN(c3ncc4c(c3C#N)CCCNC4)CC2)C1
REMARK SMILES IDX 12 1 13 2 14 3 15 4 29 5 30 6 31 7 7 8 6 9 4 10 1 11 2 12
REMARK SMILES IDX 3 13 5 14 8 15 11 17 10 18 9 19 16 21 17 22 21 23 18 24
REMARK SMILES IDX 20 25 19 26 22 27 23 28 24 29 25 30 28 32 27 33 26 35
REMARK H PARENT 27 34
REMARK Flexibility Score: 180.00
ROOT
ATOM      1  C   UNL     1     -18.763   1.419 -69.519  1.00  0.00     0.010 C 
ATOM      2  C   UNL     1     -17.327   1.556 -69.092  1.00  0.00     0.032 C 
ATOM      3  C   UNL     1     -16.468   1.775 -70.298  1.00  0.00     0.119 C 
ATOM      4  N   UNL     1     -16.978   2.781 -71.202  1.00  0.00    -0.355 N 
ATOM      5  C   UNL     1     -18.410   2.771 -71.489  1.00  0.00     0.119 C 
ATOM      6  C   UNL     1     -19.146   2.752 -70.154  1.00  0.00     0.032 C 
ENDROOT
BRANCH   1   7
ATOM      7  C   UNL     1     -19.710   1.159 -68.390  1.00  0.00     0.094 C 
BRANCH   7   8
ATOM      8  N   UNL     1     -19.970  -0.236 -68.151  1.00  0.00    -0.292 NA
BRANCH   8   9
ATOM      9  C   UNL     1     -20.511  -0.393 -66.811  1.00  0.00     0.185 C 
BRANCH   9  10
ATOM     10  C   UNL     1     -19.636  -1.258 -65.960  1.00  0.00     0.236 C 
ATOM     11  C   UNL     1     -19.327  -3.084 -64.346  1.00  0.00     0.146 C 
ATOM     12  N   UNL     1     -20.135  -2.479 -65.401  1.00  0.00    -0.348 N 
ATOM     13  C   UNL     1     -20.868  -3.382 -66.254  1.00  0.00     0.146 C 
ATOM     14  O   UNL     1     -18.411  -1.285 -66.289  1.00  0.00    -0.273 OA
ENDBRANCH   9  10
ENDBRANCH   8   9
BRANCH   8  15
ATOM     15  C   UNL     1     -20.983  -0.768 -69.060  1.00  0.00     0.113 CG0
ATOM     16  G   UNL     1     -20.242  -1.332 -70.258  1.00  0.00     0.000 G0
ENDBRANCH   8  15
ENDBRANCH   7   8
ENDBRANCH   1   7
BRANCH   1  17
ATOM     17  C   UNL     1     -18.890   0.394 -70.640  1.00  0.00     0.168 C 
BRANCH  17  18
ATOM     18  O   UNL     1     -18.913  -0.905 -70.165  1.00  0.00    -0.379 OA
BRANCH  18  19
ATOM     19  C   UNL     1     -20.238  -1.350 -70.293  1.00  0.00     0.175 CG0
ATOM     20  G   UNL     1     -20.981  -0.795 -69.092  1.00  0.00     0.000 G0
ENDBRANCH  18  19
ENDBRANCH  17  18
ENDBRANCH   1  17
BRANCH   4  21
ATOM     21  C   UNL     1     -16.132   3.126 -72.305  1.00  0.00     0.146 A 
ATOM     22  N   UNL     1     -15.798   2.245 -73.271  1.00  0.00    -0.238 NA
ATOM     23  C   UNL     1     -15.746   4.441 -72.541  1.00  0.00     0.098 A 
ATOM     24  C   UNL     1     -15.420   2.622 -74.510  1.00  0.00     0.119 A 
ATOM     25  C   UNL     1     -15.197   4.828 -73.751  1.00  0.00    -0.020 A 
ATOM     26  C   UNL     1     -15.220   3.944 -74.818  1.00  0.00    -0.011 A 
BRANCH  23  27
ATOM     27  C   UNL     1     -15.990   5.452 -71.554  1.00  0.00     0.103 C 
ATOM     28  N   UNL     1     -16.107   5.945 -70.505  1.00  0.00    -0.192 NA
ENDBRANCH  23  27
BRANCH  25  29
ATOM     29  C   UNL     1     -14.857   6.281 -73.813  1.00  0.00     0.039 C 
BRANCH  29  30
ATOM     30  C   UNL     1     -15.739   6.925 -74.872  1.00  0.00     0.020 CG1
ATOM     31  G   UNL     1     -15.397   6.459 -76.260  1.00  0.00     0.000 G1
ENDBRANCH  29  30
ENDBRANCH  25  29
BRANCH  26  32
ATOM     32  C   UNL     1     -14.685   4.190 -76.183  1.00  0.00     0.118 C 
BRANCH  32  33
ATOM     33  N   UNL     1     -14.270   5.581 -76.347  1.00  0.00    -0.313 NA
ATOM     34  H   UNL     1     -13.613   5.823 -75.604  1.00  0.00     0.123 HD
BRANCH  33  35
ATOM     35  C   UNL     1     -15.414   6.472 -76.280  1.00  0.00     0.081 CG1
ATOM     36  G   UNL     1     -15.731   6.909 -74.878  1.00  0.00     0.000 G1
ENDBRANCH  33  35
ENDBRANCH  32  33
ENDBRANCH  26  32
ENDBRANCH   4  21
TORSDOF 4
ENDMDL
MODEL 5
REMARK VINA RESULT:   -11.670      4.752      8.953
REMARK INTER + INTRA:          -2.921
REMARK INTER:                  -4.057
REMARK INTRA:                   1.135
REMARK UNBOUND:                18.983
REMARK SMILES CN(C)C(=O)CN1CCOCC2(CCN(c3ncc4c(c3C#N)CCCNC4)CC2)C1
REMARK SMILES IDX 12 1 13 2 14 3 15 4 29 5 30 6 31 7 7 8 6 9 4 10 1 11 2 12
REMARK SMILES IDX 3 13 5 14 8 15 11 17 10 18 9 19 16 21 17 22 21 23 18 24
REMARK SMILES IDX 20 25 19 26 22 27 23 28 24 29 25 30 28 32 27 33 26 35
REMARK H PARENT 27 34
REMARK Flexibility Score: 180.00
ROOT
ATOM      1  C   UNL     1     -24.855   8.669 -64.310  1.00  0.00     0.010 C 
ATOM      2  C   UNL     1     -25.206   8.746 -65.770  1.00  0.00     0.032 C 
ATOM      3  C   UNL     1     -25.886  10.050 -66.050  1.00  0.00     0.119 C 
ATOM      4  N   UNL     1     -25.211  11.194 -65.480  1.00  0.00    -0.355 N 
ATOM      5  C   UNL     1     -24.704  11.072 -64.116  1.00  0.00     0.119 C 
ATOM      6  C   UNL     1     -23.865   9.800 -64.050  1.00  0.00     0.032 C 
ENDROOT
BRANCH   1   7
ATOM      7  C   UNL     1     -24.200   7.385 -63.910  1.00  0.00     0.094 C 
BRANCH   7   8
ATOM      8  N   UNL     1     -25.111   6.391 -63.408  1.00  0.00    -0.292 NA
BRANCH   8   9
ATOM      9  C   UNL     1     -24.514   5.076 -63.571  1.00  0.00     0.185 C 
BRANCH   9  10
ATOM     10  C   UNL     1     -25.531   4.054 -63.971  1.00  0.00     0.236 C 
ATOM     11  C   UNL     1     -27.451   3.340 -65.327  1.00  0.00     0.146 C 
ATOM     12  N   UNL     1     -26.281   4.201 -65.183  1.00  0.00    -0.348 N 
ATOM     13  C   UNL     1     -25.578   4.549 -66.393  1.00  0.00     0.146 C 
ATOM     14  O   UNL     1     -25.250   2.856 -63.662  1.00  0.00    -0.273 OA
ENDBRANCH   9  10
ENDBRANCH   8   9
BRANCH   8  15
ATOM     15  C   UNL     1     -25.358   6.547 -61.977  1.00  0.00     0.113 CG0
ATOM     16  G   UNL     1     -26.530   7.500 -61.836  1.00  0.00     0.000 G0
ENDBRANCH   8  15
ENDBRANCH   7   8
ENDBRANCH   1   7
BRANCH   1  17
ATOM     17  C   UNL     1     -26.070   9.001 -63.451  1.00  0.00     0.168 C 
BRANCH  17  18
ATOM     18  O   UNL     1     -26.837   7.883 -63.173  1.00  0.00    -0.379 OA
BRANCH  18  19
ATOM     19  C   UNL     1     -26.528   7.508 -61.856  1.00  0.00     0.175 CG0
ATOM     20  G   UNL     1     -25.359   6.546 -61.962  1.00  0.00     0.000 G0
ENDBRANCH  18  19
ENDBRANCH  17  18
ENDBRANCH   1  17
BRANCH   4  21
ATOM     21  C   UNL     1     -25.744  12.478 -65.826  1.00  0.00     0.146 A 
ATOM     22  N   UNL     1     -26.957  12.899 -65.414  1.00  0.00    -0.238 NA
ATOM     23  C   UNL     1     -24.966  13.440 -66.462  1.00  0.00     0.098 A 
ATOM     24  C   UNL     1     -27.288  14.203 -65.315  1.00  0.00     0.119 A 
ATOM     25  C   UNL     1     -25.360  14.765 -66.523  1.00  0.00    -0.020 A 
ATOM     26  C   UNL     1     -26.441  15.184 -65.766  1.00  0.00    -0.011 A 
BRANCH  23  27
ATOM     27  C   UNL     1     -23.683  13.089 -67.000  1.00  0.00     0.103 C 
ATOM     28  N   UNL     1     -22.685  12.508 -67.146  1.00  0.00    -0.192 NA
ENDBRANCH  23  27
BRANCH  25  29
ATOM     29  C   UNL     1     -24.387  15.643 -67.239  1.00  0.00     0.039 C 
BRANCH  29  30
ATOM     30  C   UNL     1     -23.908  16.706 -66.262  1.00  0.00     0.020 CG1
ATOM     31  G   UNL     1     -24.945  17.766 -66.017  1.00  0.00     0.000 G1
ENDBRANCH  29  30
ENDBRANCH  25  29
BRANCH  26  32
ATOM     32  C   UNL     1     -26.998  16.561 -65.703  1.00  0.00     0.118 C 
BRANCH  32  33
ATOM     33  N   UNL     1     -26.262  17.471 -66.577  1.00  0.00    -0.313 NA
ATOM     34  H   UNL     1     -26.130  17.026 -67.486  1.00  0.00     0.123 HD
BRANCH  33  35
ATOM     35  C   UNL     1     -24.964  17.792 -66.012  1.00  0.00     0.081 CG1
ATOM     36  G   UNL     1     -23.936  16.725 -66.266  1.00  0.00     0.000 G1
ENDBRANCH  33  35
ENDBRANCH  32  33
ENDBRANCH  26  32
ENDBRANCH   4  21
TORSDOF 4
ENDMDL
MODEL 6
REMARK VINA RESULT:   -11.645     10.197     11.611
REMARK INTER + INTRA:          -2.873
REMARK INTER:                  -4.068
REMARK INTRA:                   1.195
REMARK UNBOUND:                18.983
REMARK SMILES CN(C)C(=O)CN1CCOCC2(CCN(c3ncc4c(c3C#N)CCCNC4)CC2)C1
REMARK SMILES IDX 12 1 13 2 14 3 15 4 29 5 30 6 31 7 7 8 6 9 4 10 1 11 2 12
REMARK SMILES IDX 3 13 5 14 8 15 11 17 10 18 9 19 16 21 17 22 21 23 18 24
REMARK SMILES IDX 20 25 19 26 22 27 23 28 24 29 25 30 28 32 27 33 26 35
REMARK H PARENT 27 34
REMARK Flexibility Score: 180.00
ROOT
ATOM      1  C   UNL     1     -16.901   3.665 -71.884  1.00  0.00     0.010 C 
ATOM      2  C   UNL     1     -16.081   2.419 -71.686  1.00  0.00     0.032 C 
ATOM      3  C   UNL     1     -16.527   1.724 -70.437  1.00  0.00     0.119 C 
ATOM      4  N   UNL     1     -17.961   1.584 -70.328  1.00  0.00    -0.355 N 
ATOM      5  C   UNL     1     -18.784   2.736 -70.689  1.00  0.00     0.119 C 
ATOM      6  C   UNL     1     -18.342   3.200 -72.073  1.00  0.00     0.032 C 
ENDROOT
BRANCH   1   7
ATOM      7  C   UNL     1     -16.514   4.461 -73.090  1.00  0.00     0.094 C 
BRANCH   7   8
ATOM      8  N   UNL     1     -15.515   5.466 -72.835  1.00  0.00    -0.292 NA
BRANCH   8   9
ATOM      9  C   UNL     1     -14.819   5.764 -74.075  1.00  0.00     0.185 C 
BRANCH   9  10
ATOM     10  C   UNL     1     -13.826   4.699 -74.421  1.00  0.00     0.236 C 
ATOM     11  C   UNL     1     -13.147   2.725 -75.715  1.00  0.00     0.146 C 
ATOM     12  N   UNL     1     -13.964   3.931 -75.622  1.00  0.00    -0.348 N 
ATOM     13  C   UNL     1     -14.243   4.622 -76.857  1.00  0.00     0.146 C 
ATOM     14  O   UNL     1     -12.628   4.938 -74.077  1.00  0.00    -0.273 OA
ENDBRANCH   9  10
ENDBRANCH   8   9
BRANCH   8  15
ATOM     15  C   UNL     1     -16.106   6.725 -72.391  1.00  0.00     0.113 CG0
ATOM     16  G   UNL     1     -16.277   6.622 -70.887  1.00  0.00     0.000 G0
ENDBRANCH   8  15
ENDBRANCH   7   8
ENDBRANCH   1   7
BRANCH   1  17
ATOM     17  C   UNL     1     -16.918   4.500 -70.609  1.00  0.00     0.168 C 
BRANCH  17  18
ATOM     18  O   UNL     1     -15.825   5.343 -70.518  1.00  0.00    -0.379 OA
BRANCH  18  19
ATOM     19  C   UNL     1     -16.283   6.625 -70.857  1.00  0.00     0.175 CG0
ATOM     20  G   UNL     1     -16.119   6.741 -72.361  1.00  0.00     0.000 G0
ENDBRANCH  18  19
ENDBRANCH  17  18
ENDBRANCH   1  17
BRANCH   4  21
ATOM     21  C   UNL     1     -18.437   0.812 -69.219  1.00  0.00     0.146 A 
ATOM     22  N   UNL     1     -18.584   1.327 -67.981  1.00  0.00    -0.238 NA
ATOM     23  C   UNL     1     -18.945  -0.471 -69.393  1.00  0.00     0.098 A 
ATOM     24  C   UNL     1     -19.430   0.810 -67.066  1.00  0.00     0.119 A 
ATOM     25  C   UNL     1     -19.680  -1.099 -68.402  1.00  0.00    -0.020 A 
ATOM     26  C   UNL     1     -20.094  -0.367 -67.301  1.00  0.00    -0.011 A 
BRANCH  23  27
ATOM     27  C   UNL     1     -18.788  -1.145 -70.649  1.00  0.00     0.103 C 
ATOM     28  N   UNL     1     -18.513  -1.312 -71.768  1.00  0.00    -0.192 NA
ENDBRANCH  23  27
BRANCH  25  29
ATOM     29  C   UNL     1     -20.144  -2.466 -68.782  1.00  0.00     0.039 C 
BRANCH  29  30
ATOM     30  C   UNL     1     -21.662  -2.491 -68.683  1.00  0.00     0.020 CG1
ATOM     31  G   UNL     1     -22.139  -2.592 -67.261  1.00  0.00     0.000 G1
ENDBRANCH  29  30
ENDBRANCH  25  29
BRANCH  26  32
ATOM     32  C   UNL     1     -20.890  -0.871 -66.151  1.00  0.00     0.118 C 
BRANCH  32  33
ATOM     33  N   UNL     1     -22.217  -1.309 -66.576  1.00  0.00    -0.313 NA
ATOM     34  H   UNL     1     -22.819  -1.393 -65.757  1.00  0.00     0.123 HD
BRANCH  33  35
ATOM     35  C   UNL     1     -22.146  -2.594 -67.248  1.00  0.00     0.081 CG1
ATOM     36  G   UNL     1     -21.666  -2.484 -68.668  1.00  0.00     0.000 G1
ENDBRANCH  33  35
ENDBRANCH  32  33
ENDBRANCH  26  32
ENDBRANCH   4  21
TORSDOF 4
ENDMDL
MODEL 7
REMARK VINA RESULT:   -11.566      3.081      9.743
REMARK INTER + INTRA:          -2.725
REMARK INTER:                  -4.110
REMARK INTRA:                   1.385
REMARK UNBOUND:                18.983
REMARK SMILES CN(C)C(=O)CN1CCOCC2(CCN(c3ncc4c(c3C#N)CCCNC4)CC2)C1
REMARK SMILES IDX 12 1 13 2 14 3 15 4 29 5 30 6 31 7 7 8 6 9 4 10 1 11 2 12
REMARK SMILES IDX 3 13 5 14 8 15 11 17 10 18 9 19 16 21 17 22 21 23 18 24
REMARK SMILES IDX 20 25 19 26 22 27 23 28 24 29 25 30 28 32 27 33 26 35
REMARK H PARENT 27 34
REMARK Flexibility Score: 180.00
ROOT
ATOM      1  C   UNL     1     -24.932   8.913 -64.500  1.00  0.00     0.010 C 
ATOM      2  C   UNL     1     -24.966   8.015 -65.705  1.00  0.00     0.032 C 
ATOM      3  C   UNL     1     -24.881   8.846 -66.947  1.00  0.00     0.119 C 
ATOM      4  N   UNL     1     -23.838   9.847 -66.909  1.00  0.00    -0.355 N 
ATOM      5  C   UNL     1     -23.677  10.610 -65.674  1.00  0.00     0.119 C 
ATOM      6  C   UNL     1     -23.576   9.611 -64.527  1.00  0.00     0.032 C 
ENDROOT
BRANCH   1   7
ATOM      7  C   UNL     1     -25.048   8.186 -63.197  1.00  0.00     0.094 C 
BRANCH   7   8
ATOM      8  N   UNL     1     -26.403   7.955 -62.772  1.00  0.00    -0.292 NA
BRANCH   8   9
ATOM      9  C   UNL     1     -26.442   6.756 -61.950  1.00  0.00     0.185 C 
BRANCH   9  10
ATOM     10  C   UNL     1     -27.498   5.803 -62.415  1.00  0.00     0.236 C 
ATOM     11  C   UNL     1     -28.494   4.363 -64.139  1.00  0.00     0.146 C 
ATOM     12  N   UNL     1     -27.305   5.015 -63.596  1.00  0.00    -0.348 N 
ATOM     13  C   UNL     1     -26.051   4.325 -63.770  1.00  0.00     0.146 C 
ATOM     14  O   UNL     1     -28.159   5.230 -61.496  1.00  0.00    -0.273 OA
ENDBRANCH   9  10
ENDBRANCH   8   9
BRANCH   8  15
ATOM     15  C   UNL     1     -26.905   9.037 -61.929  1.00  0.00     0.113 CG0
ATOM     16  G   UNL     1     -27.294  10.171 -62.860  1.00  0.00     0.000 G0
ENDBRANCH   8  15
ENDBRANCH   7   8
ENDBRANCH   1   7
BRANCH   1  17
ATOM     17  C   UNL     1     -25.956  10.033 -64.640  1.00  0.00     0.168 C 
BRANCH  17  18
ATOM     18  O   UNL     1     -27.202   9.669 -64.160  1.00  0.00    -0.379 OA
BRANCH  18  19
ATOM     19  C   UNL     1     -27.295  10.192 -62.861  1.00  0.00     0.175 CG0
ATOM     20  G   UNL     1     -26.917   9.056 -61.928  1.00  0.00     0.000 G0
ENDBRANCH  18  19
ENDBRANCH  17  18
ENDBRANCH   1  17
BRANCH   4  21
ATOM     21  C   UNL     1     -23.626  10.583 -68.119  1.00  0.00     0.146 A 
ATOM     22  N   UNL     1     -24.421  11.603 -68.502  1.00  0.00    -0.238 NA
ATOM     23  C   UNL     1     -22.479  10.404 -68.886  1.00  0.00     0.098 A 
ATOM     24  C   UNL     1     -24.011  12.582 -69.336  1.00  0.00     0.119 A 
ATOM     25  C   UNL     1     -22.117  11.308 -69.870  1.00  0.00    -0.020 A 
ATOM     26  C   UNL     1     -22.790  12.516 -69.958  1.00  0.00    -0.011 A 
BRANCH  23  27
ATOM     27  C   UNL     1     -21.593   9.310 -68.612  1.00  0.00     0.103 C 
ATOM     28  N   UNL     1     -20.649   8.740 -68.237  1.00  0.00    -0.192 NA
ENDBRANCH  23  27
BRANCH  25  29
ATOM     29  C   UNL     1     -20.852  10.945 -70.575  1.00  0.00     0.039 C 
BRANCH  29  30
ATOM     30  C   UNL     1     -19.929  12.154 -70.531  1.00  0.00     0.020 CG1
ATOM     31  G   UNL     1     -20.283  13.180 -71.571  1.00  0.00     0.000 G1
ENDBRANCH  29  30
ENDBRANCH  25  29
BRANCH  26  32
ATOM     32  C   UNL     1     -22.535  13.602 -70.941  1.00  0.00     0.118 C 
BRANCH  32  33
ATOM     33  N   UNL     1     -21.644  13.152 -72.008  1.00  0.00    -0.313 NA
ATOM     34  H   UNL     1     -21.882  12.192 -72.258  1.00  0.00     0.123 HD
BRANCH  33  35
ATOM     35  C   UNL     1     -20.258  13.202 -71.578  1.00  0.00     0.081 CG1
ATOM     36  G   UNL     1     -19.928  12.155 -70.551  1.00  0.00     0.000 G1
ENDBRANCH  33  35
ENDBRANCH  32  33
ENDBRANCH  26  32
ENDBRANCH   4  21
TORSDOF 4
ENDMDL
MODEL 8
REMARK VINA RESULT:   -11.542      5.950      8.794
REMARK INTER + INTRA:          -2.681
REMARK INTER:                  -3.886
REMARK INTRA:                   1.206
REMARK UNBOUND:                18.983
REMARK SMILES CN(C)C(=O)CN1CCOCC2(CCN(c3ncc4c(c3C#N)CCCNC4)CC2)C1
REMARK SMILES IDX 12 1 13 2 14 3 15 4 29 5 30 6 31 7 7 8 6 9 4 10 1 11 2 12
REMARK SMILES IDX 3 13 5 14 8 15 11 17 10 18 9 19 16 21 17 22 21 23 18 24
REMARK SMILES IDX 20 25 19 26 22 27 23 28 24 29 25 30 28 32 27 33 26 35
REMARK H PARENT 27 34
REMARK Flexibility Score: 180.00
ROOT
ATOM      1  C   UNL     1     -21.654   9.221 -70.520  1.00  0.00     0.010 C 
ATOM      2  C   UNL     1     -22.466   8.147 -71.190  1.00  0.00     0.032 C 
ATOM      3  C   UNL     1     -21.569   7.009 -71.569  1.00  0.00     0.119 C 
ATOM      4  N   UNL     1     -20.680   6.589 -70.509  1.00  0.00    -0.355 N 
ATOM      5  C   UNL     1     -20.017   7.630 -69.729  1.00  0.00     0.119 C 
ATOM      6  C   UNL     1     -21.092   8.598 -69.246  1.00  0.00     0.032 C 
ENDROOT
BRANCH   1   7
ATOM      7  C   UNL     1     -22.448  10.427 -70.129  1.00  0.00     0.094 C 
BRANCH   7   8
ATOM      8  N   UNL     1     -22.617  11.388 -71.188  1.00  0.00    -0.292 NA
BRANCH   8   9
ATOM      9  C   UNL     1     -23.880  12.081 -70.999  1.00  0.00     0.185 C 
BRANCH   9  10
ATOM     10  C   UNL     1     -24.779  11.922 -72.185  1.00  0.00     0.236 C 
ATOM     11  C   UNL     1     -26.591  12.722 -73.638  1.00  0.00     0.146 C 
ATOM     12  N   UNL     1     -25.519  13.036 -72.698  1.00  0.00    -0.348 N 
ATOM     13  C   UNL     1     -24.834  14.291 -72.891  1.00  0.00     0.146 C 
ATOM     14  O   UNL     1     -24.382  11.097 -73.064  1.00  0.00    -0.273 OA
ENDBRANCH   9  10
ENDBRANCH   8   9
BRANCH   8  15
ATOM     15  C   UNL     1     -21.583  12.419 -71.161  1.00  0.00     0.113 CG0
ATOM     16  G   UNL     1     -20.311  11.777 -71.683  1.00  0.00     0.000 G0
ENDBRANCH   8  15
ENDBRANCH   7   8
ENDBRANCH   1   7
BRANCH   1  17
ATOM     17  C   UNL     1     -20.432   9.569 -71.362  1.00  0.00     0.168 C 
BRANCH  17  18
ATOM     18  O   UNL     1     -20.695  10.569 -72.281  1.00  0.00    -0.379 OA
BRANCH  18  19
ATOM     19  C   UNL     1     -20.293  11.773 -71.683  1.00  0.00     0.175 CG0
ATOM     20  G   UNL     1     -21.563  12.431 -71.177  1.00  0.00     0.000 G0
ENDBRANCH  18  19
ENDBRANCH  17  18
ENDBRANCH   1  17
BRANCH   4  21
ATOM     21  C   UNL     1     -19.893   5.422 -70.772  1.00  0.00     0.146 A 
ATOM     22  N   UNL     1     -18.667   5.479 -71.332  1.00  0.00    -0.238 NA
ATOM     23  C   UNL     1     -20.273   4.169 -70.302  1.00  0.00     0.098 A 
ATOM     24  C   UNL     1     -17.740   4.512 -71.171  1.00  0.00     0.119 A 
ATOM     25  C   UNL     1     -19.388   3.105 -70.280  1.00  0.00    -0.020 A 
ATOM     26  C   UNL     1     -18.046   3.337 -70.534  1.00  0.00    -0.011 A 
BRANCH  23  27
ATOM     27  C   UNL     1     -21.581   3.974 -69.747  1.00  0.00     0.103 C 
ATOM     28  N   UNL     1     -22.649   4.229 -69.361  1.00  0.00    -0.192 NA
ENDBRANCH  23  27
BRANCH  25  29
ATOM     29  C   UNL     1     -19.982   1.849 -69.733  1.00  0.00     0.039 C 
BRANCH  29  30
ATOM     30  C   UNL     1     -19.154   1.424 -68.529  1.00  0.00     0.020 CG1
ATOM     31  G   UNL     1     -17.859   0.773 -68.928  1.00  0.00     0.000 G1
ENDBRANCH  29  30
ENDBRANCH  25  29
BRANCH  26  32
ATOM     32  C   UNL     1     -16.959   2.322 -70.547  1.00  0.00     0.118 C 
BRANCH  32  33
ATOM     33  N   UNL     1     -16.784   1.717 -69.229  1.00  0.00    -0.313 NA
ATOM     34  H   UNL     1     -15.885   1.237 -69.199  1.00  0.00     0.123 HD
BRANCH  33  35
ATOM     35  C   UNL     1     -17.843   0.761 -68.956  1.00  0.00     0.081 CG1
ATOM     36  G   UNL     1     -19.125   1.418 -68.526  1.00  0.00     0.000 G1
ENDBRANCH  33  35
ENDBRANCH  32  33
ENDBRANCH  26  32
ENDBRANCH   4  21
TORSDOF 4
ENDMDL
MODEL 9
REMARK VINA RESULT:   -11.447      3.475      4.914
REMARK INTER + INTRA:          -2.502
REMARK INTER:                  -4.059
REMARK INTRA:                   1.557
REMARK UNBOUND:                18.983
REMARK SMILES CN(C)C(=O)CN1CCOCC2(CCN(c3ncc4c(c3C#N)CCCNC4)CC2)C1
REMARK SMILES IDX 12 1 13 2 14 3 15 4 29 5 30 6 31 7 7 8 6 9 4 10 1 11 2 12
REMARK SMILES IDX 3 13 5 14 8 15 11 17 10 18 9 19 16 21 17 22 21 23 18 24
REMARK SMILES IDX 20 25 19 26 22 27 23 28 24 29 25 30 28 32 27 33 26 35
REMARK H PARENT 27 34
REMARK Flexibility Score: 180.00
ROOT
ATOM      1  C   UNL     1     -22.037   9.973 -69.794  1.00  0.00     0.010 C 
ATOM      2  C   UNL     1     -21.832   9.499 -68.381  1.00  0.00     0.032 C 
ATOM      3  C   UNL     1     -22.220  10.589 -67.431  1.00  0.00     0.119 C 
ATOM      4  N   UNL     1     -23.493  11.201 -67.734  1.00  0.00    -0.355 N 
ATOM      5  C   UNL     1     -23.782  11.506 -69.133  1.00  0.00     0.119 C 
ATOM      6  C   UNL     1     -23.532  10.238 -69.941  1.00  0.00     0.032 C 
ENDROOT
BRANCH   1   7
ATOM      7  C   UNL     1     -21.644   8.970 -70.833  1.00  0.00     0.094 C 
BRANCH   7   8
ATOM      8  N   UNL     1     -20.317   9.155 -71.357  1.00  0.00    -0.292 NA
BRANCH   8   9
ATOM      9  C   UNL     1     -19.890   7.928 -72.008  1.00  0.00     0.185 C 
BRANCH   9  10
ATOM     10  C   UNL     1     -19.150   7.032 -71.066  1.00  0.00     0.236 C 
ATOM     11  C   UNL     1     -18.017   4.915 -70.549  1.00  0.00     0.146 C 
ATOM     12  N   UNL     1     -18.434   5.890 -71.552  1.00  0.00    -0.348 N 
ATOM     13  C   UNL     1     -17.574   6.050 -72.698  1.00  0.00     0.146 C 
ATOM     14  O   UNL     1     -18.618   7.609 -70.069  1.00  0.00    -0.273 OA
ENDBRANCH   9  10
ENDBRANCH   8   9
BRANCH   8  15
ATOM     15  C   UNL     1     -20.274  10.193 -72.384  1.00  0.00     0.113 CG0
ATOM     16  G   UNL     1     -19.907  11.488 -71.682  1.00  0.00     0.000 G0
ENDBRANCH   8  15
ENDBRANCH   7   8
ENDBRANCH   1   7
BRANCH   1  17
ATOM     17  C   UNL     1     -21.372  11.327 -70.004  1.00  0.00     0.168 C 
BRANCH  17  18
ATOM     18  O   UNL     1     -20.026  11.211 -70.306  1.00  0.00    -0.379 OA
BRANCH  18  19
ATOM     19  C   UNL     1     -19.903  11.480 -71.678  1.00  0.00     0.175 CG0
ATOM     20  G   UNL     1     -20.291  10.197 -72.389  1.00  0.00     0.000 G0
ENDBRANCH  18  19
ENDBRANCH  17  18
ENDBRANCH   1  17
BRANCH   4  21
ATOM     21  C   UNL     1     -23.975  12.159 -66.784  1.00  0.00     0.146 A 
ATOM     22  N   UNL     1     -23.357  13.336 -66.556  1.00  0.00    -0.238 NA
ATOM     23  C   UNL     1     -25.212  12.007 -66.165  1.00  0.00     0.098 A 
ATOM     24  C   UNL     1     -23.993  14.415 -66.054  1.00  0.00     0.119 A 
ATOM     25  C   UNL     1     -25.818  13.055 -65.494  1.00  0.00    -0.020 A 
ATOM     26  C   UNL     1     -25.290  14.330 -65.612  1.00  0.00    -0.011 A 
BRANCH  23  27
ATOM     27  C   UNL     1     -25.931  10.772 -66.282  1.00  0.00     0.103 C 
ATOM     28  N   UNL     1     -26.728  10.006 -66.648  1.00  0.00    -0.192 NA
ENDBRANCH  23  27
BRANCH  25  29
ATOM     29  C   UNL     1     -27.143  12.697 -64.905  1.00  0.00     0.039 C 
BRANCH  29  30
ATOM     30  C   UNL     1     -28.192  13.613 -65.519  1.00  0.00     0.020 CG1
ATOM     31  G   UNL     1     -28.151  14.998 -64.936  1.00  0.00     0.000 G1
ENDBRANCH  29  30
ENDBRANCH  25  29
BRANCH  26  32
ATOM     32  C   UNL     1     -25.808  15.567 -64.972  1.00  0.00     0.118 C 
BRANCH  32  33
ATOM     33  N   UNL     1     -26.967  15.281 -64.129  1.00  0.00    -0.313 NA
ATOM     34  H   UNL     1     -26.771  14.457 -63.560  1.00  0.00     0.123 HD
BRANCH  33  35
ATOM     35  C   UNL     1     -28.145  15.030 -64.939  1.00  0.00     0.081 CG1
ATOM     36  G   UNL     1     -28.178  13.638 -65.505  1.00  0.00     0.000 G1
ENDBRANCH  33  35
ENDBRANCH  32  33
ENDBRANCH  26  32
ENDBRANCH   4  21
TORSDOF 4
ENDMDL
