MODEL 1
REMARK VINA RESULT:   -12.726      0.000      0.000
REMARK INTER + INTRA:           0.053
REMARK INTER:                  -5.259
REMARK INTRA:                   5.313
REMARK UNBOUND:                23.194
REMARK SMILES N#Cc1c(N2CC[C@@H]3CN(Cc4cccnc4)CCO[C@@H]3C2)ncc2c1CCCNC2
REMARK SMILES IDX 5 1 6 2 7 3 8 4 21 5 22 6 4 7 3 8 26 9 25 10 23 11 24 12
REMARK SMILES IDX 2 13 1 14 27 15 28 16 31 18 30 19 29 21 20 23 19 24 9 26
REMARK SMILES IDX 10 27 11 28 12 29 13 30 17 31 14 32 16 33 15 34 18 35
REMARK H PARENT 30 20
REMARK Flexibility Score: 180.00
ROOT
ATOM      1  N   UNL     1     -20.615   8.325 -70.095  1.00  0.00    -0.353 N 
ATOM      2  C   UNL     1     -21.728   7.366 -70.107  1.00  0.00     0.118 C 
ATOM      3  C   UNL     1     -22.838   8.350 -69.735  1.00  0.00     0.029 C 
ATOM      4  C   UNL     1     -22.309   8.511 -68.211  1.00  0.00     0.036 C 
ATOM      5  C   UNL     1     -21.510  10.019 -68.398  1.00  0.00     0.142 C 
ATOM      6  C   UNL     1     -20.598   9.632 -69.686  1.00  0.00     0.150 C 
ENDROOT
BRANCH   1   7
ATOM      7  C   UNL     1     -20.040   8.241 -71.421  1.00  0.00     0.146 A 
ATOM      8  C   UNL     1     -18.805   7.680 -71.575  1.00  0.00     0.098 A 
ATOM      9  C   UNL     1     -18.279   7.587 -72.858  1.00  0.00    -0.020 A 
ATOM     10  C   UNL     1     -18.974   8.142 -73.927  1.00  0.00    -0.011 A 
ATOM     11  N   UNL     1     -20.785   8.484 -72.527  1.00  0.00    -0.238 NA
ATOM     12  C   UNL     1     -20.320   8.311 -73.766  1.00  0.00     0.119 A 
BRANCH   8  13
ATOM     13  C   UNL     1     -18.203   6.855 -70.552  1.00  0.00     0.103 C 
ATOM     14  N   UNL     1     -17.522   6.364 -69.816  1.00  0.00    -0.192 NA
ENDBRANCH   8  13
BRANCH   9  15
ATOM     15  C   UNL     1     -16.807   7.322 -72.808  1.00  0.00     0.039 C 
BRANCH  15  16
ATOM     16  C   UNL     1     -16.075   8.407 -73.557  1.00  0.00     0.020 CG1
ATOM     17  G   UNL     1     -16.226   8.163 -75.049  1.00  0.00     0.000 G1
ENDBRANCH  15  16
ENDBRANCH   9  15
BRANCH  10  18
ATOM     18  C   UNL     1     -18.613   8.010 -75.350  1.00  0.00     0.118 C 
BRANCH  18  19
ATOM     19  N   UNL     1     -17.408   8.758 -75.644  1.00  0.00    -0.313 NA
ATOM     20  H   UNL     1     -17.508   9.698 -75.262  1.00  0.00     0.123 HD
BRANCH  19  21
ATOM     21  C   UNL     1     -16.221   8.165 -75.089  1.00  0.00     0.081 CG1
ATOM     22  G   UNL     1     -16.089   8.400 -73.594  1.00  0.00     0.000 G1
ENDBRANCH  19  21
ENDBRANCH  18  19
ENDBRANCH  10  18
ENDBRANCH   1   7
BRANCH   5  23
ATOM     23  O   UNL     1     -22.582  10.643 -69.272  1.00  0.00    -0.375 OA
BRANCH  23  24
ATOM     24  C   UNL     1     -22.918  11.733 -68.478  1.00  0.00     0.176 CG0
ATOM     25  G   UNL     1     -22.958  11.354 -67.029  1.00  0.00     0.000 G0
ENDBRANCH  23  24
ENDBRANCH   5  23
BRANCH   4  26
ATOM     26  C   UNL     1     -23.704   9.164 -67.721  1.00  0.00     0.091 C 
BRANCH  26  27
ATOM     27  N   UNL     1     -23.465  10.070 -66.673  1.00  0.00    -0.296 NA
BRANCH  27  28
ATOM     28  C   UNL     1     -22.898   9.426 -65.535  1.00  0.00     0.121 C 
BRANCH  28  29
ATOM     29  C   UNL     1     -23.954   9.432 -64.473  1.00  0.00    -0.016 A 
ATOM     30  C   UNL     1     -24.141   8.326 -63.652  1.00  0.00     0.008 A 
ATOM     31  C   UNL     1     -24.596  10.581 -64.076  1.00  0.00     0.116 A 
ATOM     32  C   UNL     1     -25.441   8.168 -63.184  1.00  0.00     0.020 A 
ATOM     33  N   UNL     1     -25.706  10.471 -63.313  1.00  0.00    -0.264 NA
ATOM     34  C   UNL     1     -26.290   9.264 -63.109  1.00  0.00     0.111 A 
ENDBRANCH  28  29
ENDBRANCH  27  28
BRANCH  27  35
ATOM     35  C   UNL     1     -22.963  11.354 -66.991  1.00  0.00     0.113 CG0
ATOM     36  G   UNL     1     -22.934  11.682 -68.453  1.00  0.00     0.000 G0
ENDBRANCH  27  35
ENDBRANCH  26  27
ENDBRANCH   4  26
TORSDOF 4
ENDMDL
MODEL 2
REMARK VINA RESULT:   -12.470     13.993     16.264
REMARK INTER + INTRA:           0.519
REMARK INTER:                  -4.465
REMARK INTRA:                   4.983
REMARK UNBOUND:                23.194
REMARK SMILES N#Cc1c(N2CC[C@@H]3CN(Cc4cccnc4)CCO[C@@H]3C2)ncc2c1CCCNC2
REMARK SMILES IDX 5 1 6 2 7 3 8 4 21 5 22 6 4 7 3 8 26 9 25 10 23 11 24 12
REMARK SMILES IDX 2 13 1 14 27 15 28 16 31 18 30 19 29 21 20 23 19 24 9 26
REMARK SMILES IDX 10 27 11 28 12 29 13 30 17 31 14 32 16 33 15 34 18 35
REMARK H PARENT 30 20
REMARK Flexibility Score: 180.00
ROOT
ATOM      1  N   UNL     1     -17.646   0.752 -80.278  1.00  0.00    -0.353 N 
ATOM      2  C   UNL     1     -17.498   2.210 -80.169  1.00  0.00     0.118 C 
ATOM      3  C   UNL     1     -16.067   2.300 -80.701  1.00  0.00     0.029 C 
ATOM      4  C   UNL     1     -15.435   1.615 -79.374  1.00  0.00     0.036 C 
ATOM      5  C   UNL     1     -15.202   0.039 -80.011  1.00  0.00     0.142 C 
ATOM      6  C   UNL     1     -16.706  -0.197 -80.580  1.00  0.00     0.150 C 
ENDROOT
BRANCH   1   7
ATOM      7  C   UNL     1     -18.798   0.559 -81.133  1.00  0.00     0.146 A 
ATOM      8  C   UNL     1     -19.893  -0.087 -80.636  1.00  0.00     0.098 A 
ATOM      9  C   UNL     1     -20.999  -0.243 -81.463  1.00  0.00    -0.020 A 
ATOM     10  C   UNL     1     -20.930   0.178 -82.786  1.00  0.00    -0.011 A 
ATOM     11  N   UNL     1     -18.910   1.204 -82.319  1.00  0.00    -0.238 NA
ATOM     12  C   UNL     1     -20.002   1.136 -83.081  1.00  0.00     0.119 A 
BRANCH   8  13
ATOM     13  C   UNL     1     -20.098  -0.271 -79.216  1.00  0.00     0.103 C 
ATOM     14  N   UNL     1     -20.015  -0.301 -78.103  1.00  0.00    -0.192 NA
ENDBRANCH   8  13
BRANCH   9  15
ATOM     15  C   UNL     1     -21.925  -1.284 -80.917  1.00  0.00     0.039 C 
BRANCH  15  16
ATOM     16  C   UNL     1     -23.336  -0.752 -80.920  1.00  0.00     0.020 CG1
ATOM     17  G   UNL     1     -23.822  -0.653 -82.356  1.00  0.00     0.000 G1
ENDBRANCH  15  16
ENDBRANCH   9  15
BRANCH  10  18
ATOM     18  C   UNL     1     -22.053   0.200 -83.741  1.00  0.00     0.118 C 
BRANCH  18  19
ATOM     19  N   UNL     1     -23.297   0.496 -83.062  1.00  0.00    -0.313 NA
ATOM     20  H   UNL     1     -23.978   0.809 -83.755  1.00  0.00     0.123 HD
BRANCH  19  21
ATOM     21  C   UNL     1     -23.845  -0.633 -82.362  1.00  0.00     0.081 CG1
ATOM     22  G   UNL     1     -23.347  -0.737 -80.931  1.00  0.00     0.000 G1
ENDBRANCH  19  21
ENDBRANCH  18  19
ENDBRANCH  10  18
ENDBRANCH   1   7
BRANCH   5  23
ATOM     23  O   UNL     1     -14.700   0.504 -81.366  1.00  0.00    -0.375 OA
BRANCH  23  24
ATOM     24  C   UNL     1     -13.443  -0.088 -81.359  1.00  0.00     0.176 CG0
ATOM     25  G   UNL     1     -12.801   0.025 -80.010  1.00  0.00     0.000 G0
ENDBRANCH  23  24
ENDBRANCH   5  23
BRANCH   4  26
ATOM     26  C   UNL     1     -13.943   2.122 -79.736  1.00  0.00     0.091 C 
BRANCH  26  27
ATOM     27  N   UNL     1     -12.995   1.204 -79.251  1.00  0.00    -0.296 NA
BRANCH  27  28
ATOM     28  C   UNL     1     -13.051   1.085 -77.832  1.00  0.00     0.121 C 
BRANCH  28  29
ATOM     29  C   UNL     1     -11.643   1.212 -77.340  1.00  0.00    -0.016 A 
ATOM     30  C   UNL     1     -11.090   2.463 -77.087  1.00  0.00     0.008 A 
ATOM     31  C   UNL     1     -10.925   0.140 -76.866  1.00  0.00     0.116 A 
ATOM     32  C   UNL     1      -9.711   2.529 -77.254  1.00  0.00     0.020 A 
ATOM     33  N   UNL     1      -9.592   0.280 -76.690  1.00  0.00    -0.264 NA
ATOM     34  C   UNL     1      -8.943   1.376 -77.155  1.00  0.00     0.111 A 
ENDBRANCH  28  29
ENDBRANCH  27  28
BRANCH  27  35
ATOM     35  C   UNL     1     -12.777   0.012 -79.981  1.00  0.00     0.113 CG0
ATOM     36  G   UNL     1     -13.463  -0.056 -81.311  1.00  0.00     0.000 G0
ENDBRANCH  27  35
ENDBRANCH  26  27
ENDBRANCH   4  26
TORSDOF 4
ENDMDL
MODEL 3
REMARK VINA RESULT:   -12.257      5.163      8.408
REMARK INTER + INTRA:           0.906
REMARK INTER:                  -4.198
REMARK INTRA:                   5.104
REMARK UNBOUND:                23.194
REMARK SMILES N#Cc1c(N2CC[C@@H]3CN(Cc4cccnc4)CCO[C@@H]3C2)ncc2c1CCCNC2
REMARK SMILES IDX 5 1 6 2 7 3 8 4 21 5 22 6 4 7 3 8 26 9 25 10 23 11 24 12
REMARK SMILES IDX 2 13 1 14 27 15 28 16 31 18 30 19 29 21 20 23 19 24 9 26
REMARK SMILES IDX 10 27 11 28 12 29 13 30 17 31 14 32 16 33 15 34 18 35
REMARK H PARENT 30 20
REMARK Flexibility Score: 180.00
ROOT
ATOM      1  N   UNL     1     -15.473   5.148 -74.445  1.00  0.00    -0.353 N 
ATOM      2  C   UNL     1     -15.102   6.544 -74.717  1.00  0.00     0.118 C 
ATOM      3  C   UNL     1     -15.243   7.065 -73.286  1.00  0.00     0.029 C 
ATOM      4  C   UNL     1     -16.860   6.945 -73.307  1.00  0.00     0.036 C 
ATOM      5  C   UNL     1     -16.999   5.483 -72.418  1.00  0.00     0.142 C 
ATOM      6  C   UNL     1     -15.967   4.588 -73.298  1.00  0.00     0.150 C 
ENDROOT
BRANCH   1   7
ATOM      7  C   UNL     1     -14.339   4.369 -74.897  1.00  0.00     0.146 A 
ATOM      8  C   UNL     1     -14.535   3.390 -75.828  1.00  0.00     0.098 A 
ATOM      9  C   UNL     1     -13.432   2.668 -76.267  1.00  0.00    -0.020 A 
ATOM     10  C   UNL     1     -12.188   2.895 -75.689  1.00  0.00    -0.011 A 
ATOM     11  N   UNL     1     -13.069   4.738 -74.602  1.00  0.00    -0.238 NA
ATOM     12  C   UNL     1     -11.999   4.109 -75.090  1.00  0.00     0.119 A 
BRANCH   8  13
ATOM     13  C   UNL     1     -15.731   3.329 -76.639  1.00  0.00     0.103 C 
ATOM     14  N   UNL     1     -16.631   3.548 -77.263  1.00  0.00    -0.192 NA
ENDBRANCH   8  13
BRANCH   9  15
ATOM     15  C   UNL     1     -13.863   1.415 -76.963  1.00  0.00     0.039 C 
BRANCH  15  16
ATOM     16  C   UNL     1     -13.131   1.292 -78.275  1.00  0.00     0.020 CG1
ATOM     17  G   UNL     1     -11.669   0.985 -77.997  1.00  0.00     0.000 G1
ENDBRANCH  15  16
ENDBRANCH   9  15
BRANCH  10  18
ATOM     18  C   UNL     1     -10.912   2.308 -76.134  1.00  0.00     0.118 C 
BRANCH  18  19
ATOM     19  N   UNL     1     -10.904   2.127 -77.571  1.00  0.00    -0.313 NA
ATOM     20  H   UNL     1      -9.937   2.027 -77.880  1.00  0.00     0.123 HD
BRANCH  19  21
ATOM     21  C   UNL     1     -11.643   0.972 -78.002  1.00  0.00     0.081 CG1
ATOM     22  G   UNL     1     -13.110   1.275 -78.262  1.00  0.00     0.000 G1
ENDBRANCH  19  21
ENDBRANCH  18  19
ENDBRANCH  10  18
ENDBRANCH   1   7
BRANCH   5  23
ATOM     23  O   UNL     1     -15.925   5.829 -71.403  1.00  0.00    -0.375 OA
BRANCH  23  24
ATOM     24  C   UNL     1     -16.687   5.789 -70.242  1.00  0.00     0.176 CG0
ATOM     25  G   UNL     1     -18.059   6.344 -70.477  1.00  0.00     0.000 G0
ENDBRANCH  23  24
ENDBRANCH   5  23
BRANCH   4  26
ATOM     26  C   UNL     1     -17.018   7.899 -72.011  1.00  0.00     0.091 C 
BRANCH  26  27
ATOM     27  N   UNL     1     -18.152   7.518 -71.272  1.00  0.00    -0.296 NA
BRANCH  27  28
ATOM     28  C   UNL     1     -19.356   7.730 -72.003  1.00  0.00     0.121 C 
BRANCH  28  29
ATOM     29  C   UNL     1     -19.975   8.975 -71.447  1.00  0.00    -0.016 A 
ATOM     30  C   UNL     1     -20.179  10.088 -72.255  1.00  0.00     0.008 A 
ATOM     31  C   UNL     1     -20.607   9.006 -70.226  1.00  0.00     0.116 A 
ATOM     32  C   UNL     1     -20.147  11.304 -71.581  1.00  0.00     0.020 A 
ATOM     33  N   UNL     1     -20.903  10.206 -69.680  1.00  0.00    -0.264 NA
ATOM     34  C   UNL     1     -20.418  11.352 -70.220  1.00  0.00     0.111 A 
ENDBRANCH  28  29
ENDBRANCH  27  28
BRANCH  27  35
ATOM     35  C   UNL     1     -18.083   6.341 -70.490  1.00  0.00     0.113 CG0
ATOM     36  G   UNL     1     -16.699   5.830 -70.228  1.00  0.00     0.000 G0
ENDBRANCH  27  35
ENDBRANCH  26  27
ENDBRANCH   4  26
TORSDOF 4
ENDMDL
MODEL 4
REMARK VINA RESULT:   -12.212      7.721      8.601
REMARK INTER + INTRA:           0.988
REMARK INTER:                  -4.249
REMARK INTRA:                   5.237
REMARK UNBOUND:                23.194
REMARK SMILES N#Cc1c(N2CC[C@@H]3CN(Cc4cccnc4)CCO[C@@H]3C2)ncc2c1CCCNC2
REMARK SMILES IDX 5 1 6 2 7 3 8 4 21 5 22 6 4 7 3 8 26 9 25 10 23 11 24 12
REMARK SMILES IDX 2 13 1 14 27 15 28 16 31 18 30 19 29 21 20 23 19 24 9 26
REMARK SMILES IDX 10 27 11 28 12 29 13 30 17 31 14 32 16 33 15 34 18 35
REMARK H PARENT 30 20
REMARK Flexibility Score: 180.00
ROOT
ATOM      1  N   UNL     1     -16.624   2.608 -72.358  1.00  0.00    -0.353 N 
ATOM      2  C   UNL     1     -15.953   1.374 -71.925  1.00  0.00     0.118 C 
ATOM      3  C   UNL     1     -17.210   0.520 -71.752  1.00  0.00     0.029 C 
ATOM      4  C   UNL     1     -17.692   1.337 -70.437  1.00  0.00     0.036 C 
ATOM      5  C   UNL     1     -18.883   2.316 -71.192  1.00  0.00     0.142 C 
ATOM      6  C   UNL     1     -17.960   2.905 -72.392  1.00  0.00     0.150 C 
ENDROOT
BRANCH   1   7
ATOM      7  C   UNL     1     -16.043   2.912 -73.649  1.00  0.00     0.146 A 
ATOM      8  C   UNL     1     -15.581   4.174 -73.890  1.00  0.00     0.098 A 
ATOM      9  C   UNL     1     -15.006   4.441 -75.126  1.00  0.00    -0.020 A 
ATOM     10  C   UNL     1     -14.996   3.455 -76.106  1.00  0.00    -0.011 A 
ATOM     11  N   UNL     1     -15.731   1.929 -74.529  1.00  0.00    -0.238 NA
ATOM     12  C   UNL     1     -15.097   2.161 -75.679  1.00  0.00     0.119 A 
BRANCH   8  13
ATOM     13  C   UNL     1     -15.319   5.112 -72.822  1.00  0.00     0.103 C 
ATOM     14  N   UNL     1     -15.375   5.893 -72.025  1.00  0.00    -0.192 NA
ENDBRANCH   8  13
BRANCH   9  15
ATOM     15  C   UNL     1     -14.919   5.916 -75.361  1.00  0.00     0.039 C 
BRANCH  15  16
ATOM     16  C   UNL     1     -15.643   6.266 -76.636  1.00  0.00     0.020 CG1
ATOM     17  G   UNL     1     -14.774   5.874 -77.820  1.00  0.00     0.000 G1
ENDBRANCH  15  16
ENDBRANCH   9  15
BRANCH  10  18
ATOM     18  C   UNL     1     -14.312   3.542 -77.409  1.00  0.00     0.118 C 
BRANCH  18  19
ATOM     19  N   UNL     1     -14.962   4.514 -78.264  1.00  0.00    -0.313 NA
ATOM     20  H   UNL     1     -15.963   4.320 -78.273  1.00  0.00     0.123 HD
BRANCH  19  21
ATOM     21  C   UNL     1     -14.764   5.872 -77.834  1.00  0.00     0.081 CG1
ATOM     22  G   UNL     1     -15.633   6.245 -76.644  1.00  0.00     0.000 G1
ENDBRANCH  19  21
ENDBRANCH  18  19
ENDBRANCH  10  18
ENDBRANCH   1   7
BRANCH   5  23
ATOM     23  O   UNL     1     -19.434   1.214 -72.079  1.00  0.00    -0.375 OA
BRANCH  23  24
ATOM     24  C   UNL     1     -20.750   1.198 -71.631  1.00  0.00     0.176 CG0
ATOM     25  G   UNL     1     -20.822   1.459 -70.158  1.00  0.00     0.000 G0
ENDBRANCH  23  24
ENDBRANCH   5  23
BRANCH   4  26
ATOM     26  C   UNL     1     -18.733   0.175 -70.010  1.00  0.00     0.091 C 
BRANCH  26  27
ATOM     27  N   UNL     1     -19.838   0.741 -69.351  1.00  0.00    -0.296 NA
BRANCH  27  28
ATOM     28  C   UNL     1     -19.472   1.311 -68.098  1.00  0.00     0.121 C 
BRANCH  28  29
ATOM     29  C   UNL     1     -19.806   0.290 -67.054  1.00  0.00    -0.016 A 
ATOM     30  C   UNL     1     -18.799  -0.385 -66.374  1.00  0.00     0.008 A 
ATOM     31  C   UNL     1     -21.069   0.155 -66.528  1.00  0.00     0.116 A 
ATOM     32  C   UNL     1     -19.147  -1.660 -65.942  1.00  0.00     0.020 A 
ATOM     33  N   UNL     1     -21.352  -0.945 -65.797  1.00  0.00    -0.264 NA
ATOM     34  C   UNL     1     -20.483  -1.985 -65.746  1.00  0.00     0.111 A 
ENDBRANCH  28  29
ENDBRANCH  27  28
BRANCH  27  35
ATOM     35  C   UNL     1     -20.789   1.454 -70.119  1.00  0.00     0.113 CG0
ATOM     36  G   UNL     1     -20.757   1.176 -71.591  1.00  0.00     0.000 G0
ENDBRANCH  27  35
ENDBRANCH  26  27
ENDBRANCH   4  26
TORSDOF 4
ENDMDL
MODEL 5
REMARK VINA RESULT:   -12.157      7.601     14.448
REMARK INTER + INTRA:           1.087
REMARK INTER:                  -4.252
REMARK INTRA:                   5.339
REMARK UNBOUND:                23.194
REMARK SMILES N#Cc1c(N2CC[C@@H]3CN(Cc4cccnc4)CCO[C@@H]3C2)ncc2c1CCCNC2
REMARK SMILES IDX 5 1 6 2 7 3 8 4 21 5 22 6 4 7 3 8 26 9 25 10 23 11 24 12
REMARK SMILES IDX 2 13 1 14 27 15 28 16 31 18 30 19 29 21 20 23 19 24 9 26
REMARK SMILES IDX 10 27 11 28 12 29 13 30 17 31 14 32 16 33 15 34 18 35
REMARK H PARENT 30 20
REMARK Flexibility Score: 180.00
ROOT
ATOM      1  N   UNL     1     -14.688   4.385 -76.955  1.00  0.00    -0.353 N 
ATOM      2  C   UNL     1     -14.420   5.125 -78.196  1.00  0.00     0.118 C 
ATOM      3  C   UNL     1     -15.231   4.231 -79.135  1.00  0.00     0.029 C 
ATOM      4  C   UNL     1     -14.177   3.004 -79.024  1.00  0.00     0.036 C 
ATOM      5  C   UNL     1     -15.055   2.039 -77.910  1.00  0.00     0.142 C 
ATOM      6  C   UNL     1     -15.312   3.179 -76.780  1.00  0.00     0.150 C 
ENDROOT
BRANCH   1   7
ATOM      7  C   UNL     1     -15.291   5.358 -76.068  1.00  0.00     0.146 A 
ATOM      8  C   UNL     1     -14.737   5.568 -74.838  1.00  0.00     0.098 A 
ATOM      9  C   UNL     1     -15.315   6.522 -74.009  1.00  0.00    -0.020 A 
ATOM     10  C   UNL     1     -16.481   7.164 -74.410  1.00  0.00    -0.011 A 
ATOM     11  N   UNL     1     -16.235   6.224 -76.510  1.00  0.00    -0.238 NA
ATOM     12  C   UNL     1     -16.733   7.202 -75.752  1.00  0.00     0.119 A 
BRANCH   8  13
ATOM     13  C   UNL     1     -13.393   5.140 -74.517  1.00  0.00     0.103 C 
ATOM     14  N   UNL     1     -12.310   4.870 -74.525  1.00  0.00    -0.192 NA
ENDBRANCH   8  13
BRANCH   9  15
ATOM     15  C   UNL     1     -14.846   6.350 -72.598  1.00  0.00     0.039 C 
BRANCH  15  16
ATOM     16  C   UNL     1     -16.036   6.181 -71.689  1.00  0.00     0.020 CG1
ATOM     17  G   UNL     1     -16.686   7.537 -71.470  1.00  0.00     0.000 G1
ENDBRANCH  15  16
ENDBRANCH   9  15
BRANCH  10  18
ATOM     18  C   UNL     1     -17.134   8.282 -73.706  1.00  0.00     0.118 C 
BRANCH  18  19
ATOM     19  N   UNL     1     -17.687   7.839 -72.443  1.00  0.00    -0.313 NA
ATOM     20  H   UNL     1     -18.253   7.007 -72.611  1.00  0.00     0.123 HD
BRANCH  19  21
ATOM     21  C   UNL     1     -16.685   7.519 -71.464  1.00  0.00     0.081 CG1
ATOM     22  G   UNL     1     -16.042   6.163 -71.702  1.00  0.00     0.000 G1
ENDBRANCH  19  21
ENDBRANCH  18  19
ENDBRANCH  10  18
ENDBRANCH   1   7
BRANCH   5  23
ATOM     23  O   UNL     1     -16.412   2.283 -78.546  1.00  0.00    -0.375 OA
BRANCH  23  24
ATOM     24  C   UNL     1     -16.742   0.977 -78.885  1.00  0.00     0.176 CG0
ATOM     25  G   UNL     1     -15.533   0.210 -79.326  1.00  0.00     0.000 G0
ENDBRANCH  23  24
ENDBRANCH   5  23
BRANCH   4  26
ATOM     26  C   UNL     1     -14.782   2.273 -80.333  1.00  0.00     0.091 C 
BRANCH  26  27
ATOM     27  N   UNL     1     -14.650   0.879 -80.205  1.00  0.00    -0.296 NA
BRANCH  27  28
ATOM     28  C   UNL     1     -13.283   0.478 -80.168  1.00  0.00     0.121 C 
BRANCH  28  29
ATOM     29  C   UNL     1     -13.093  -0.486 -81.298  1.00  0.00    -0.016 A 
ATOM     30  C   UNL     1     -13.687  -0.257 -82.534  1.00  0.00     0.008 A 
ATOM     31  C   UNL     1     -12.139  -1.476 -81.275  1.00  0.00     0.116 A 
ATOM     32  C   UNL     1     -13.984  -1.408 -83.255  1.00  0.00     0.020 A 
ATOM     33  N   UNL     1     -12.203  -2.459 -82.200  1.00  0.00    -0.264 NA
ATOM     34  C   UNL     1     -13.286  -2.582 -83.006  1.00  0.00     0.111 A 
ENDBRANCH  28  29
ENDBRANCH  27  28
BRANCH  27  35
ATOM     35  C   UNL     1     -15.536   0.194 -79.342  1.00  0.00     0.113 CG0
ATOM     36  G   UNL     1     -16.726   0.985 -78.892  1.00  0.00     0.000 G0
ENDBRANCH  27  35
ENDBRANCH  26  27
ENDBRANCH   4  26
TORSDOF 4
ENDMDL
MODEL 6
REMARK VINA RESULT:   -11.966      4.655      8.070
REMARK INTER + INTRA:           1.435
REMARK INTER:                  -3.899
REMARK INTRA:                   5.334
REMARK UNBOUND:                23.194
REMARK SMILES N#Cc1c(N2CC[C@@H]3CN(Cc4cccnc4)CCO[C@@H]3C2)ncc2c1CCCNC2
REMARK SMILES IDX 5 1 6 2 7 3 8 4 21 5 22 6 4 7 3 8 26 9 25 10 23 11 24 12
REMARK SMILES IDX 2 13 1 14 27 15 28 16 31 18 30 19 29 21 20 23 19 24 9 26
REMARK SMILES IDX 10 27 11 28 12 29 13 30 17 31 14 32 16 33 15 34 18 35
REMARK H PARENT 30 20
REMARK Flexibility Score: 180.00
ROOT
ATOM      1  N   UNL     1     -15.787   6.151 -74.877  1.00  0.00    -0.353 N 
ATOM      2  C   UNL     1     -15.232   7.270 -74.102  1.00  0.00     0.118 C 
ATOM      3  C   UNL     1     -16.138   7.127 -72.878  1.00  0.00     0.029 C 
ATOM      4  C   UNL     1     -17.449   7.649 -73.676  1.00  0.00     0.036 C 
ATOM      5  C   UNL     1     -18.176   6.121 -73.960  1.00  0.00     0.142 C 
ATOM      6  C   UNL     1     -16.890   5.381 -74.623  1.00  0.00     0.150 C 
ENDROOT
BRANCH   1   7
ATOM      7  C   UNL     1     -14.657   5.282 -75.133  1.00  0.00     0.146 A 
ATOM      8  C   UNL     1     -14.391   4.901 -76.416  1.00  0.00     0.098 A 
ATOM      9  C   UNL     1     -13.289   4.086 -76.646  1.00  0.00    -0.020 A 
ATOM     10  C   UNL     1     -12.549   3.611 -75.569  1.00  0.00    -0.011 A 
ATOM     11  N   UNL     1     -13.730   5.034 -74.177  1.00  0.00    -0.238 NA
ATOM     12  C   UNL     1     -12.622   4.328 -74.408  1.00  0.00     0.119 A 
BRANCH   8  13
ATOM     13  C   UNL     1     -14.950   5.594 -77.556  1.00  0.00     0.103 C 
ATOM     14  N   UNL     1     -15.315   6.347 -78.296  1.00  0.00    -0.192 NA
ENDBRANCH   8  13
BRANCH   9  15
ATOM     15  C   UNL     1     -13.369   3.459 -78.003  1.00  0.00     0.039 C 
BRANCH  15  16
ATOM     16  C   UNL     1     -12.056   3.644 -78.720  1.00  0.00     0.020 CG1
ATOM     17  G   UNL     1     -11.009   2.754 -78.070  1.00  0.00     0.000 G1
ENDBRANCH  15  16
ENDBRANCH   9  15
BRANCH  10  18
ATOM     18  C   UNL     1     -11.289   2.852 -75.658  1.00  0.00     0.118 C 
BRANCH  18  19
ATOM     19  N   UNL     1     -10.516   3.275 -76.807  1.00  0.00    -0.313 NA
ATOM     20  H   UNL     1      -9.551   2.970 -76.679  1.00  0.00     0.123 HD
BRANCH  19  21
ATOM     21  C   UNL     1     -11.003   2.740 -78.049  1.00  0.00     0.081 CG1
ATOM     22  G   UNL     1     -12.037   3.635 -78.711  1.00  0.00     0.000 G1
ENDBRANCH  19  21
ENDBRANCH  18  19
ENDBRANCH  10  18
ENDBRANCH   1   7
BRANCH   5  23
ATOM     23  O   UNL     1     -17.865   5.556 -72.586  1.00  0.00    -0.375 OA
BRANCH  23  24
ATOM     24  C   UNL     1     -19.159   5.325 -72.136  1.00  0.00     0.176 CG0
ATOM     25  G   UNL     1     -20.101   6.376 -72.639  1.00  0.00     0.000 G0
ENDBRANCH  23  24
ENDBRANCH   5  23
BRANCH   4  26
ATOM     26  C   UNL     1     -18.261   7.925 -72.305  1.00  0.00     0.091 C 
BRANCH  26  27
ATOM     27  N   UNL     1     -19.635   7.716 -72.513  1.00  0.00    -0.296 NA
BRANCH  27  28
ATOM     28  C   UNL     1     -20.191   8.685 -73.397  1.00  0.00     0.121 C 
BRANCH  28  29
ATOM     29  C   UNL     1     -20.991   9.624 -72.548  1.00  0.00    -0.016 A 
ATOM     30  C   UNL     1     -20.388  10.720 -71.940  1.00  0.00     0.008 A 
ATOM     31  C   UNL     1     -22.366   9.623 -72.537  1.00  0.00     0.116 A 
ATOM     32  C   UNL     1     -20.989  11.124 -70.754  1.00  0.00     0.020 A 
ATOM     33  N   UNL     1     -23.006  10.307 -71.563  1.00  0.00    -0.264 NA
ATOM     34  C   UNL     1     -22.321  10.816 -70.509  1.00  0.00     0.111 A 
ENDBRANCH  28  29
ENDBRANCH  27  28
BRANCH  27  35
ATOM     35  C   UNL     1     -20.102   6.388 -72.653  1.00  0.00     0.113 CG0
ATOM     36  G   UNL     1     -19.170   5.328 -72.149  1.00  0.00     0.000 G0
ENDBRANCH  27  35
ENDBRANCH  26  27
ENDBRANCH   4  26
TORSDOF 4
ENDMDL
MODEL 7
REMARK VINA RESULT:   -11.925      4.047      9.114
REMARK INTER + INTRA:           1.509
REMARK INTER:                  -3.961
REMARK INTRA:                   5.470
REMARK UNBOUND:                23.194
REMARK SMILES N#Cc1c(N2CC[C@@H]3CN(Cc4cccnc4)CCO[C@@H]3C2)ncc2c1CCCNC2
REMARK SMILES IDX 5 1 6 2 7 3 8 4 21 5 22 6 4 7 3 8 26 9 25 10 23 11 24 12
REMARK SMILES IDX 2 13 1 14 27 15 28 16 31 18 30 19 29 21 20 23 19 24 9 26
REMARK SMILES IDX 10 27 11 28 12 29 13 30 17 31 14 32 16 33 15 34 18 35
REMARK H PARENT 30 20
REMARK Flexibility Score: 180.00
ROOT
ATOM      1  N   UNL     1     -22.106  11.359 -70.940  1.00  0.00    -0.353 N 
ATOM      2  C   UNL     1     -20.692  11.742 -70.819  1.00  0.00     0.118 C 
ATOM      3  C   UNL     1     -20.171  10.945 -72.016  1.00  0.00     0.029 C 
ATOM      4  C   UNL     1     -20.387   9.519 -71.276  1.00  0.00     0.036 C 
ATOM      5  C   UNL     1     -21.848   9.069 -72.055  1.00  0.00     0.142 C 
ATOM      6  C   UNL     1     -22.687  10.430 -71.762  1.00  0.00     0.150 C 
ENDROOT
BRANCH   1   7
ATOM      7  C   UNL     1     -22.819  12.612 -71.071  1.00  0.00     0.146 A 
ATOM      8  C   UNL     1     -24.042  12.744 -70.480  1.00  0.00     0.098 A 
ATOM      9  C   UNL     1     -24.702  13.962 -70.596  1.00  0.00    -0.020 A 
ATOM     10  C   UNL     1     -24.149  14.971 -71.377  1.00  0.00    -0.011 A 
ATOM     11  N   UNL     1     -22.210  13.721 -71.555  1.00  0.00    -0.238 NA
ATOM     12  C   UNL     1     -22.800  14.916 -71.589  1.00  0.00     0.119 A 
BRANCH   8  13
ATOM     13  C   UNL     1     -24.499  11.841 -69.447  1.00  0.00     0.103 C 
ATOM     14  N   UNL     1     -24.630  11.009 -68.714  1.00  0.00    -0.192 NA
ENDBRANCH   8  13
BRANCH   9  15
ATOM     15  C   UNL     1     -26.149  13.815 -70.244  1.00  0.00     0.039 C 
BRANCH  15  16
ATOM     16  C   UNL     1     -26.998  14.268 -71.405  1.00  0.00     0.020 CG1
ATOM     17  G   UNL     1     -27.008  15.787 -71.444  1.00  0.00     0.000 G1
ENDBRANCH  15  16
ENDBRANCH   9  15
BRANCH  10  18
ATOM     18  C   UNL     1     -24.659  16.349 -71.491  1.00  0.00     0.118 C 
BRANCH  18  19
ATOM     19  N   UNL     1     -25.923  16.371 -72.197  1.00  0.00    -0.313 NA
ATOM     20  H   UNL     1     -25.825  15.827 -73.055  1.00  0.00     0.123 HD
BRANCH  19  21
ATOM     21  C   UNL     1     -27.011  15.824 -71.433  1.00  0.00     0.081 CG1
ATOM     22  G   UNL     1     -26.995  14.306 -71.387  1.00  0.00     0.000 G1
ENDBRANCH  19  21
ENDBRANCH  18  19
ENDBRANCH  10  18
ENDBRANCH   1   7
BRANCH   5  23
ATOM     23  O   UNL     1     -21.433   9.553 -73.432  1.00  0.00    -0.375 OA
BRANCH  23  24
ATOM     24  C   UNL     1     -21.504   8.352 -74.127  1.00  0.00     0.176 CG0
ATOM     25  G   UNL     1     -21.067   7.205 -73.268  1.00  0.00     0.000 G0
ENDBRANCH  23  24
ENDBRANCH   5  23
BRANCH   4  26
ATOM     26  C   UNL     1     -19.436   8.747 -72.331  1.00  0.00     0.091 C 
BRANCH  26  27
ATOM     27  N   UNL     1     -19.888   7.428 -72.507  1.00  0.00    -0.296 NA
BRANCH  27  28
ATOM     28  C   UNL     1     -19.731   6.653 -71.321  1.00  0.00     0.121 C 
BRANCH  28  29
ATOM     29  C   UNL     1     -18.361   6.053 -71.385  1.00  0.00    -0.016 A 
ATOM     30  C   UNL     1     -17.345   6.514 -70.554  1.00  0.00     0.008 A 
ATOM     31  C   UNL     1     -18.097   4.876 -72.045  1.00  0.00     0.116 A 
ATOM     32  C   UNL     1     -16.065   6.381 -71.079  1.00  0.00     0.020 A 
ATOM     33  N   UNL     1     -16.810   4.540 -72.282  1.00  0.00    -0.264 NA
ATOM     34  C   UNL     1     -15.810   5.427 -72.056  1.00  0.00     0.111 A 
ENDBRANCH  28  29
ENDBRANCH  27  28
BRANCH  27  35
ATOM     35  C   UNL     1     -21.070   7.214 -73.254  1.00  0.00     0.113 CG0
ATOM     36  G   UNL     1     -21.489   8.358 -74.126  1.00  0.00     0.000 G0
ENDBRANCH  27  35
ENDBRANCH  26  27
ENDBRANCH   4  26
TORSDOF 4
ENDMDL
MODEL 8
REMARK VINA RESULT:   -11.881      7.045      8.388
REMARK INTER + INTRA:           1.589
REMARK INTER:                  -4.180
REMARK INTRA:                   5.769
REMARK UNBOUND:                23.194
REMARK SMILES N#Cc1c(N2CC[C@@H]3CN(Cc4cccnc4)CCO[C@@H]3C2)ncc2c1CCCNC2
REMARK SMILES IDX 5 1 6 2 7 3 8 4 21 5 22 6 4 7 3 8 26 9 25 10 23 11 24 12
REMARK SMILES IDX 2 13 1 14 27 15 28 16 31 18 30 19 29 21 20 23 19 24 9 26
REMARK SMILES IDX 10 27 11 28 12 29 13 30 17 31 14 32 16 33 15 34 18 35
REMARK H PARENT 30 20
REMARK Flexibility Score: 180.00
ROOT
ATOM      1  N   UNL     1     -17.283   2.541 -70.675  1.00  0.00    -0.353 N 
ATOM      2  C   UNL     1     -16.711   1.190 -70.769  1.00  0.00     0.118 C 
ATOM      3  C   UNL     1     -18.021   0.414 -70.624  1.00  0.00     0.029 C 
ATOM      4  C   UNL     1     -18.181   0.800 -69.057  1.00  0.00     0.036 C 
ATOM      5  C   UNL     1     -19.345   2.048 -69.241  1.00  0.00     0.142 C 
ATOM      6  C   UNL     1     -18.560   2.924 -70.362  1.00  0.00     0.150 C 
ENDROOT
BRANCH   1   7
ATOM      7  C   UNL     1     -16.883   3.198 -71.901  1.00  0.00     0.146 A 
ATOM      8  C   UNL     1     -16.689   4.549 -71.897  1.00  0.00     0.098 A 
ATOM      9  C   UNL     1     -16.283   5.160 -73.078  1.00  0.00    -0.020 A 
ATOM     10  C   UNL     1     -16.173   4.405 -74.239  1.00  0.00    -0.011 A 
ATOM     11  N   UNL     1     -16.470   2.487 -72.979  1.00  0.00    -0.238 NA
ATOM     12  C   UNL     1     -15.993   3.059 -74.085  1.00  0.00     0.119 A 
BRANCH   8  13
ATOM     13  C   UNL     1     -16.515   5.297 -70.672  1.00  0.00     0.103 C 
ATOM     14  N   UNL     1     -16.639   5.933 -69.762  1.00  0.00    -0.192 NA
ENDBRANCH   8  13
BRANCH   9  15
ATOM     15  C   UNL     1     -16.494   6.640 -73.007  1.00  0.00     0.039 C 
BRANCH  15  16
ATOM     16  C   UNL     1     -15.247   7.349 -73.469  1.00  0.00     0.020 CG1
ATOM     17  G   UNL     1     -15.113   7.181 -74.973  1.00  0.00     0.000 G1
ENDBRANCH  15  16
ENDBRANCH   9  15
BRANCH  10  18
ATOM     18  C   UNL     1     -15.633   4.878 -75.527  1.00  0.00     0.118 C 
BRANCH  18  19
ATOM     19  N   UNL     1     -14.600   5.870 -75.315  1.00  0.00    -0.313 NA
ATOM     20  H   UNL     1     -14.049   5.953 -76.170  1.00  0.00     0.123 HD
BRANCH  19  21
ATOM     21  C   UNL     1     -15.117   7.168 -74.978  1.00  0.00     0.081 CG1
ATOM     22  G   UNL     1     -15.256   7.376 -73.479  1.00  0.00     0.000 G1
ENDBRANCH  19  21
ENDBRANCH  18  19
ENDBRANCH  10  18
ENDBRANCH   1   7
BRANCH   5  23
ATOM     23  O   UNL     1     -20.165   1.327 -70.295  1.00  0.00    -0.375 OA
BRANCH  23  24
ATOM     24  C   UNL     1     -21.383   1.261 -69.630  1.00  0.00     0.176 CG0
ATOM     25  G   UNL     1     -21.188   0.975 -68.173  1.00  0.00     0.000 G0
ENDBRANCH  23  24
ENDBRANCH   5  23
BRANCH   4  26
ATOM     26  C   UNL     1     -19.276  -0.362 -68.809  1.00  0.00     0.091 C 
BRANCH  26  27
ATOM     27  N   UNL     1     -20.184   0.041 -67.814  1.00  0.00    -0.296 NA
BRANCH  27  28
ATOM     28  C   UNL     1     -19.546   0.204 -66.550  1.00  0.00     0.121 C 
BRANCH  28  29
ATOM     29  C   UNL     1     -19.789  -1.060 -65.786  1.00  0.00    -0.016 A 
ATOM     30  C   UNL     1     -21.084  -1.502 -65.540  1.00  0.00     0.008 A 
ATOM     31  C   UNL     1     -18.793  -1.970 -65.524  1.00  0.00     0.116 A 
ATOM     32  C   UNL     1     -21.228  -2.248 -64.376  1.00  0.00     0.020 A 
ATOM     33  N   UNL     1     -19.026  -2.943 -64.616  1.00  0.00    -0.264 NA
ATOM     34  C   UNL     1     -20.134  -2.909 -63.834  1.00  0.00     0.111 A 
ENDBRANCH  28  29
ENDBRANCH  27  28
BRANCH  27  35
ATOM     35  C   UNL     1     -21.177   0.990 -68.151  1.00  0.00     0.113 CG0
ATOM     36  G   UNL     1     -21.347   1.241 -69.619  1.00  0.00     0.000 G0
ENDBRANCH  27  35
ENDBRANCH  26  27
ENDBRANCH   4  26
TORSDOF 4
ENDMDL
MODEL 9
REMARK VINA RESULT:   -11.693      7.039     13.819
REMARK INTER + INTRA:           1.932
REMARK INTER:                  -3.206
REMARK INTRA:                   5.138
REMARK UNBOUND:                23.194
REMARK SMILES N#Cc1c(N2CC[C@@H]3CN(Cc4cccnc4)CCO[C@@H]3C2)ncc2c1CCCNC2
REMARK SMILES IDX 5 1 6 2 7 3 8 4 21 5 22 6 4 7 3 8 26 9 25 10 23 11 24 12
REMARK SMILES IDX 2 13 1 14 27 15 28 16 31 18 30 19 29 21 20 23 19 24 9 26
REMARK SMILES IDX 10 27 11 28 12 29 13 30 17 31 14 32 16 33 15 34 18 35
REMARK H PARENT 30 20
REMARK Flexibility Score: 180.00
ROOT
ATOM      1  N   UNL     1     -15.934   3.580 -75.582  1.00  0.00    -0.353 N 
ATOM      2  C   UNL     1     -15.085   2.488 -75.086  1.00  0.00     0.118 C 
ATOM      3  C   UNL     1     -13.984   2.602 -76.142  1.00  0.00     0.029 C 
ATOM      4  C   UNL     1     -14.933   2.024 -77.323  1.00  0.00     0.036 C 
ATOM      5  C   UNL     1     -15.321   3.521 -78.066  1.00  0.00     0.142 C 
ATOM      6  C   UNL     1     -15.828   4.307 -76.738  1.00  0.00     0.150 C 
ENDROOT
BRANCH   1   7
ATOM      7  C   UNL     1     -16.058   4.491 -74.464  1.00  0.00     0.146 A 
ATOM      8  C   UNL     1     -17.302   4.816 -74.007  1.00  0.00     0.098 A 
ATOM      9  C   UNL     1     -17.401   5.674 -72.918  1.00  0.00    -0.020 A 
ATOM     10  C   UNL     1     -16.250   6.244 -72.386  1.00  0.00    -0.011 A 
ATOM     11  N   UNL     1     -14.981   4.839 -73.718  1.00  0.00    -0.238 NA
ATOM     12  C   UNL     1     -15.074   5.587 -72.618  1.00  0.00     0.119 A 
BRANCH   8  13
ATOM     13  C   UNL     1     -18.472   4.035 -74.341  1.00  0.00     0.103 C 
ATOM     14  N   UNL     1     -19.227   3.358 -74.809  1.00  0.00    -0.192 NA
ENDBRANCH   8  13
BRANCH   9  15
ATOM     15  C   UNL     1     -18.789   6.221 -72.800  1.00  0.00     0.039 C 
BRANCH  15  16
ATOM     16  C   UNL     1     -19.264   6.086 -71.376  1.00  0.00     0.020 CG1
ATOM     17  G   UNL     1     -18.516   7.085 -70.509  1.00  0.00     0.000 G1
ENDBRANCH  15  16
ENDBRANCH   9  15
BRANCH  10  18
ATOM     18  C   UNL     1     -16.180   7.061 -71.162  1.00  0.00     0.118 C 
BRANCH  18  19
ATOM     19  N   UNL     1     -17.174   6.630 -70.201  1.00  0.00    -0.313 NA
ATOM     20  H   UNL     1     -16.916   6.992 -69.283  1.00  0.00     0.123 HD
BRANCH  19  21
ATOM     21  C   UNL     1     -18.502   7.086 -70.513  1.00  0.00     0.081 CG1
ATOM     22  G   UNL     1     -19.279   6.096 -71.363  1.00  0.00     0.000 G1
ENDBRANCH  19  21
ENDBRANCH  18  19
ENDBRANCH  10  18
ENDBRANCH   1   7
BRANCH   5  23
ATOM     23  O   UNL     1     -13.925   4.106 -77.951  1.00  0.00    -0.375 OA
BRANCH  23  24
ATOM     24  C   UNL     1     -13.649   4.307 -79.298  1.00  0.00     0.176 CG0
ATOM     25  G   UNL     1     -14.234   3.213 -80.138  1.00  0.00     0.000 G0
ENDBRANCH  23  24
ENDBRANCH   5  23
BRANCH   4  26
ATOM     26  C   UNL     1     -13.671   1.724 -78.287  1.00  0.00     0.091 C 
BRANCH  26  27
ATOM     27  N   UNL     1     -14.047   1.886 -79.632  1.00  0.00    -0.296 NA
BRANCH  27  28
ATOM     28  C   UNL     1     -14.990   0.898 -80.040  1.00  0.00     0.121 C 
BRANCH  28  29
ATOM     29  C   UNL     1     -14.197  -0.319 -80.404  1.00  0.00    -0.016 A 
ATOM     30  C   UNL     1     -14.514  -1.560 -79.864  1.00  0.00     0.008 A 
ATOM     31  C   UNL     1     -13.316  -0.340 -81.460  1.00  0.00     0.116 A 
ATOM     32  C   UNL     1     -13.436  -2.429 -79.742  1.00  0.00     0.020 A 
ATOM     33  N   UNL     1     -12.454  -1.375 -81.563  1.00  0.00    -0.264 NA
ATOM     34  C   UNL     1     -12.319  -2.268 -80.551  1.00  0.00     0.111 A 
ENDBRANCH  28  29
ENDBRANCH  27  28
BRANCH  27  35
ATOM     35  C   UNL     1     -14.248   3.197 -80.123  1.00  0.00     0.113 CG0
ATOM     36  G   UNL     1     -13.637   4.288 -79.297  1.00  0.00     0.000 G0
ENDBRANCH  27  35
ENDBRANCH  26  27
ENDBRANCH   4  26
TORSDOF 4
ENDMDL
