MODEL 1
REMARK VINA RESULT:   -11.948      0.000      0.000
REMARK INTER + INTRA:          13.357
REMARK INTER:                  -2.219
REMARK INTRA:                  15.576
REMARK UNBOUND:                32.988
REMARK SMILES CN1C2=CCC[C@H](CC[N+](C)(C)C)[C@@H]1CCCC2
REMARK SMILES IDX 14 1 2 2 1 3 3 4 4 5 5 7 7 9 6 10 8 12 9 13 10 14 11 15
REMARK SMILES IDX 12 16 13 17 15 18 16 19 17 20 18 21
REMARK H PARENT
REMARK Flexibility Score: 180.00
ROOT
ATOM      1  C   UNL     1     -14.284   4.047 -76.189  1.00  0.00     0.085 C 
ENDROOT
BRANCH   1   2
ATOM      2  N   UNL     1     -14.710   3.755 -74.680  1.00  0.00    -0.375 N 
ATOM      3  C   UNL     1     -15.055   3.019 -74.394  1.00  0.00     0.143 C 
BRANCH   2   4
ATOM      4  C   UNL     1     -14.024   4.911 -74.131  1.00  0.00     0.009 CG0
ATOM      5  C   UNL     1     -14.447   6.139 -74.524  1.00  0.00    -0.006 C 
ATOM      6  G   UNL     1     -12.512   4.968 -74.201  1.00  0.00     0.000 G0
BRANCH   5   7
ATOM      7  C   UNL     1     -15.387   6.291 -75.723  1.00  0.00     0.029 CG1
ATOM      8  G   UNL     1     -16.351   5.097 -75.776  1.00  0.00     0.000 G1
ENDBRANCH   5   7
ENDBRANCH   2   4
ENDBRANCH   1   2
BRANCH   1   9
ATOM      9  C   UNL     1     -15.852   3.962 -76.837  1.00  0.00     0.017 C 
BRANCH   9  10
ATOM     10  C   UNL     1     -16.373   5.105 -75.798  1.00  0.00     0.010 CG1
ATOM     11  G   UNL     1     -15.387   6.281 -75.768  1.00  0.00     0.000 G1
ENDBRANCH   9  10
BRANCH   9  12
ATOM     12  C   UNL     1     -16.362   2.684 -75.984  1.00  0.00     0.067 C 
BRANCH  12  13
ATOM     13  C   UNL     1     -17.514   2.040 -76.588  1.00  0.00     0.263 C 
BRANCH  13  14
ATOM     14  N   UNL     1     -18.307   1.186 -75.763  1.00  0.00    -0.331 N 
ATOM     15  C   UNL     1     -18.784   2.051 -74.685  1.00  0.00     0.334 C 
ATOM     16  C   UNL     1     -19.429   0.638 -76.475  1.00  0.00     0.334 C 
ATOM     17  C   UNL     1     -17.580   0.111 -75.145  1.00  0.00     0.334 C 
ENDBRANCH  13  14
ENDBRANCH  12  13
ENDBRANCH   9  12
ENDBRANCH   1   9
BRANCH   1  18
ATOM     18  C   UNL     1     -13.772   2.525 -76.364  1.00  0.00     0.025 C 
BRANCH  18  19
ATOM     19  C   UNL     1     -12.456   2.805 -75.618  1.00  0.00     0.003 C 
BRANCH  19  20
ATOM     20  C   UNL     1     -12.026   4.254 -75.521  1.00  0.00     0.006 C 
BRANCH  20  21
ATOM     21  C   UNL     1     -12.494   4.966 -74.238  1.00  0.00     0.053 CG0
ATOM     22  G   UNL     1     -14.003   4.899 -74.118  1.00  0.00     0.000 G0
ENDBRANCH  20  21
ENDBRANCH  19  20
ENDBRANCH  18  19
ENDBRANCH   1  18
TORSDOF 3
ENDMDL
MODEL 2
REMARK VINA RESULT:   -11.868     15.241     16.858
REMARK INTER + INTRA:          13.489
REMARK INTER:                  -2.245
REMARK INTRA:                  15.734
REMARK UNBOUND:                32.988
REMARK SMILES CN1C2=CCC[C@H](CC[N+](C)(C)C)[C@@H]1CCCC2
REMARK SMILES IDX 14 1 2 2 1 3 3 4 4 5 5 7 7 9 6 10 8 12 9 13 10 14 11 15
REMARK SMILES IDX 12 16 13 17 15 18 16 19 17 20 18 21
REMARK H PARENT
REMARK Flexibility Score: 180.00
ROOT
ATOM      1  C   UNL     1     -25.167   9.502 -63.557  1.00  0.00     0.085 C 
ENDROOT
BRANCH   1   2
ATOM      2  N   UNL     1     -25.917   8.848 -64.804  1.00  0.00    -0.375 N 
ATOM      3  C   UNL     1     -25.728   8.995 -65.632  1.00  0.00     0.143 C 
BRANCH   2   4
ATOM      4  C   UNL     1     -26.618   7.849 -64.017  1.00  0.00     0.009 CG0
ATOM      5  C   UNL     1     -27.501   8.287 -63.085  1.00  0.00    -0.006 C 
ATOM      6  G   UNL     1     -25.815   6.764 -63.327  1.00  0.00     0.000 G0
BRANCH   5   7
ATOM      7  C   UNL     1     -27.525   9.760 -62.668  1.00  0.00     0.029 CG1
ATOM      8  G   UNL     1     -27.194  10.643 -63.879  1.00  0.00     0.000 G1
ENDBRANCH   5   7
ENDBRANCH   2   4
ENDBRANCH   1   2
BRANCH   1   9
ATOM      9  C   UNL     1     -25.644  11.100 -63.880  1.00  0.00     0.017 C 
BRANCH   9  10
ATOM     10  C   UNL     1     -27.214  10.661 -63.872  1.00  0.00     0.010 CG1
ATOM     11  G   UNL     1     -27.507   9.764 -62.661  1.00  0.00     0.000 G1
ENDBRANCH   9  10
BRANCH   9  12
ATOM     12  C   UNL     1     -25.443  11.059 -65.485  1.00  0.00     0.067 C 
BRANCH  12  13
ATOM     13  C   UNL     1     -25.137  12.366 -66.038  1.00  0.00     0.263 C 
BRANCH  13  14
ATOM     14  N   UNL     1     -25.711  12.705 -67.301  1.00  0.00    -0.331 N 
ATOM     15  C   UNL     1     -25.248  14.067 -67.564  1.00  0.00     0.334 C 
ATOM     16  C   UNL     1     -25.262  11.831 -68.349  1.00  0.00     0.334 C 
ATOM     17  C   UNL     1     -27.149  12.743 -67.312  1.00  0.00     0.334 C 
ENDBRANCH  13  14
ENDBRANCH  12  13
ENDBRANCH   9  12
ENDBRANCH   1   9
BRANCH   1  18
ATOM     18  C   UNL     1     -23.753   9.417 -64.335  1.00  0.00     0.025 C 
BRANCH  18  19
ATOM     19  C   UNL     1     -23.615   7.908 -64.069  1.00  0.00     0.003 C 
BRANCH  19  20
ATOM     20  C   UNL     1     -24.414   7.347 -62.910  1.00  0.00     0.006 C 
BRANCH  20  21
ATOM     21  C   UNL     1     -25.779   6.760 -63.314  1.00  0.00     0.053 CG0
ATOM     22  G   UNL     1     -26.622   7.811 -64.006  1.00  0.00     0.000 G0
ENDBRANCH  20  21
ENDBRANCH  19  20
ENDBRANCH  18  19
ENDBRANCH   1  18
TORSDOF 3
ENDMDL
MODEL 3
REMARK VINA RESULT:   -11.819     15.790     17.032
REMARK INTER + INTRA:          13.570
REMARK INTER:                  -2.070
REMARK INTRA:                  15.639
REMARK UNBOUND:                32.988
REMARK SMILES CN1C2=CCC[C@H](CC[N+](C)(C)C)[C@@H]1CCCC2
REMARK SMILES IDX 14 1 2 2 1 3 3 4 4 5 5 7 7 9 6 10 8 12 9 13 10 14 11 15
REMARK SMILES IDX 12 16 13 17 15 18 16 19 17 20 18 21
REMARK H PARENT
REMARK Flexibility Score: 180.00
ROOT
ATOM      1  C   UNL     1     -26.879  10.416 -63.722  1.00  0.00     0.085 C 
ENDROOT
BRANCH   1   2
ATOM      2  N   UNL     1     -26.793   9.627 -65.106  1.00  0.00    -0.375 N 
ATOM      3  C   UNL     1     -27.288   8.958 -65.330  1.00  0.00     0.143 C 
BRANCH   2   4
ATOM      4  C   UNL     1     -25.955  10.616 -65.760  1.00  0.00     0.009 CG0
ATOM      5  C   UNL     1     -24.718  10.833 -65.245  1.00  0.00    -0.006 C 
ATOM      6  G   UNL     1     -26.522  11.995 -66.031  1.00  0.00     0.000 G0
BRANCH   5   7
ATOM      7  C   UNL     1     -24.346  10.293 -63.862  1.00  0.00     0.029 CG1
ATOM      8  G   UNL     1     -25.050   8.949 -63.628  1.00  0.00     0.000 G1
ENDBRANCH   5   7
ENDBRANCH   2   4
ENDBRANCH   1   2
BRANCH   1   9
ATOM      9  C   UNL     1     -26.405   9.111 -62.744  1.00  0.00     0.017 C 
BRANCH   9  10
ATOM     10  C   UNL     1     -25.030   8.933 -63.601  1.00  0.00     0.010 CG1
ATOM     11  G   UNL     1     -24.387  10.303 -63.860  1.00  0.00     0.000 G1
ENDBRANCH   9  10
BRANCH   9  12
ATOM     12  C   UNL     1     -27.252   7.960 -63.504  1.00  0.00     0.067 C 
BRANCH  12  13
ATOM     13  C   UNL     1     -27.370   6.747 -62.715  1.00  0.00     0.263 C 
BRANCH  13  14
ATOM     14  N   UNL     1     -27.107   5.502 -63.364  1.00  0.00    -0.331 N 
ATOM     15  C   UNL     1     -27.693   4.494 -62.482  1.00  0.00     0.334 C 
ATOM     16  C   UNL     1     -27.726   5.430 -64.659  1.00  0.00     0.334 C 
ATOM     17  C   UNL     1     -25.711   5.181 -63.497  1.00  0.00     0.334 C 
ENDBRANCH  13  14
ENDBRANCH  12  13
ENDBRANCH   9  12
ENDBRANCH   1   9
BRANCH   1  18
ATOM     18  C   UNL     1     -28.488  10.267 -63.711  1.00  0.00     0.025 C 
BRANCH  18  19
ATOM     19  C   UNL     1     -28.675  11.428 -64.703  1.00  0.00     0.003 C 
BRANCH  19  20
ATOM     20  C   UNL     1     -27.503  12.373 -64.870  1.00  0.00     0.006 C 
BRANCH  20  21
ATOM     21  C   UNL     1     -26.548  11.998 -66.019  1.00  0.00     0.053 CG0
ATOM     22  G   UNL     1     -25.952  10.625 -65.782  1.00  0.00     0.000 G0
ENDBRANCH  20  21
ENDBRANCH  19  20
ENDBRANCH  18  19
ENDBRANCH   1  18
TORSDOF 3
ENDMDL
MODEL 4
REMARK VINA RESULT:   -11.747      8.839     12.249
REMARK INTER + INTRA:          13.688
REMARK INTER:                  -2.197
REMARK INTRA:                  15.885
REMARK UNBOUND:                32.988
REMARK SMILES CN1C2=CCC[C@H](CC[N+](C)(C)C)[C@@H]1CCCC2
REMARK SMILES IDX 14 1 2 2 1 3 3 4 4 5 5 7 7 9 6 10 8 12 9 13 10 14 11 15
REMARK SMILES IDX 12 16 13 17 15 18 16 19 17 20 18 21
REMARK H PARENT
REMARK Flexibility Score: 180.00
ROOT
ATOM      1  C   UNL     1     -26.530   4.267 -78.990  1.00  0.00     0.085 C 
ENDROOT
BRANCH   1   2
ATOM      2  N   UNL     1     -27.122   4.253 -77.508  1.00  0.00    -0.375 N 
ATOM      3  C   UNL     1     -26.711   4.533 -76.805  1.00  0.00     0.143 C 
BRANCH   2   4
ATOM      4  C   UNL     1     -28.486   3.974 -77.923  1.00  0.00     0.009 CG0
ATOM      5  C   UNL     1     -28.725   2.792 -78.546  1.00  0.00    -0.006 C 
ATOM      6  G   UNL     1     -29.231   5.012 -78.737  1.00  0.00     0.000 G0
BRANCH   5   7
ATOM      7  C   UNL     1     -27.566   1.937 -79.064  1.00  0.00     0.029 CG1
ATOM      8  G   UNL     1     -26.369   2.061 -78.111  1.00  0.00     0.000 G1
ENDBRANCH   5   7
ENDBRANCH   2   4
ENDBRANCH   1   2
BRANCH   1   9
ATOM      9  C   UNL     1     -25.280   3.156 -78.692  1.00  0.00     0.017 C 
BRANCH   9  10
ATOM     10  C   UNL     1     -26.349   2.064 -78.125  1.00  0.00     0.010 CG1
ATOM     11  G   UNL     1     -27.542   1.945 -79.083  1.00  0.00     0.000 G1
ENDBRANCH   9  10
BRANCH   9  12
ATOM     12  C   UNL     1     -24.820   3.737 -77.253  1.00  0.00     0.067 C 
BRANCH  12  13
ATOM     13  C   UNL     1     -23.376   3.785 -77.110  1.00  0.00     0.263 C 
BRANCH  13  14
ATOM     14  N   UNL     1     -22.782   2.989 -76.085  1.00  0.00    -0.331 N 
ATOM     15  C   UNL     1     -21.858   3.894 -75.402  1.00  0.00     0.334 C 
ATOM     16  C   UNL     1     -23.757   2.499 -75.150  1.00  0.00     0.334 C 
ATOM     17  C   UNL     1     -22.002   1.881 -76.566  1.00  0.00     0.334 C 
ENDBRANCH  13  14
ENDBRANCH  12  13
ENDBRANCH   9  12
ENDBRANCH   1   9
BRANCH   1  18
ATOM     18  C   UNL     1     -25.792   5.676 -78.705  1.00  0.00     0.025 C 
BRANCH  18  19
ATOM     19  C   UNL     1     -27.094   6.477 -78.884  1.00  0.00     0.003 C 
BRANCH  19  20
ATOM     20  C   UNL     1     -28.212   5.792 -79.642  1.00  0.00     0.006 C 
BRANCH  20  21
ATOM     21  C   UNL     1     -29.217   5.045 -78.745  1.00  0.00     0.053 CG0
ATOM     22  G   UNL     1     -28.509   3.976 -77.937  1.00  0.00     0.000 G0
ENDBRANCH  20  21
ENDBRANCH  19  20
ENDBRANCH  18  19
ENDBRANCH   1  18
TORSDOF 3
ENDMDL
MODEL 5
REMARK VINA RESULT:   -11.682      1.498      2.428
REMARK INTER + INTRA:          13.794
REMARK INTER:                  -1.769
REMARK INTRA:                  15.563
REMARK UNBOUND:                32.988
REMARK SMILES CN1C2=CCC[C@H](CC[N+](C)(C)C)[C@@H]1CCCC2
REMARK SMILES IDX 14 1 2 2 1 3 3 4 4 5 5 7 7 9 6 10 8 12 9 13 10 14 11 15
REMARK SMILES IDX 12 16 13 17 15 18 16 19 17 20 18 21
REMARK H PARENT
REMARK Flexibility Score: 180.00
ROOT
ATOM      1  C   UNL     1     -14.549   3.926 -76.447  1.00  0.00     0.085 C 
ENDROOT
BRANCH   1   2
ATOM      2  N   UNL     1     -13.826   2.637 -75.846  1.00  0.00    -0.375 N 
ATOM      3  C   UNL     1     -14.169   1.848 -75.801  1.00  0.00     0.143 C 
BRANCH   2   4
ATOM      4  C   UNL     1     -12.507   3.244 -75.802  1.00  0.00     0.009 CG0
ATOM      5  C   UNL     1     -12.332   4.311 -74.984  1.00  0.00    -0.006 C 
ATOM      6  G   UNL     1     -11.832   3.624 -77.105  1.00  0.00     0.000 G0
BRANCH   5   7
ATOM      7  C   UNL     1     -13.538   5.033 -74.377  1.00  0.00     0.029 CG1
ATOM      8  G   UNL     1     -14.660   4.021 -74.106  1.00  0.00     0.000 G1
ENDBRANCH   5   7
ENDBRANCH   2   4
ENDBRANCH   1   2
BRANCH   1   9
ATOM      9  C   UNL     1     -15.778   4.002 -75.277  1.00  0.00     0.017 C 
BRANCH   9  10
ATOM     10  C   UNL     1     -14.673   4.013 -74.078  1.00  0.00     0.010 CG1
ATOM     11  G   UNL     1     -13.561   5.024 -74.393  1.00  0.00     0.000 G1
ENDBRANCH   9  10
BRANCH   9  12
ATOM     12  C   UNL     1     -16.108   2.419 -75.216  1.00  0.00     0.067 C 
BRANCH  12  13
ATOM     13  C   UNL     1     -17.239   2.122 -74.356  1.00  0.00     0.263 C 
BRANCH  13  14
ATOM     14  N   UNL     1     -18.306   1.345 -74.902  1.00  0.00    -0.331 N 
ATOM     15  C   UNL     1     -17.660   0.135 -75.408  1.00  0.00     0.334 C 
ATOM     16  C   UNL     1     -19.281   0.993 -73.907  1.00  0.00     0.334 C 
ATOM     17  C   UNL     1     -18.979   1.957 -76.016  1.00  0.00     0.334 C 
ENDBRANCH  13  14
ENDBRANCH  12  13
ENDBRANCH   9  12
ENDBRANCH   1   9
BRANCH   1  18
ATOM     18  C   UNL     1     -15.244   3.027 -77.596  1.00  0.00     0.025 C 
BRANCH  18  19
ATOM     19  C   UNL     1     -13.961   2.990 -78.445  1.00  0.00     0.003 C 
BRANCH  19  20
ATOM     20  C   UNL     1     -12.922   4.053 -78.150  1.00  0.00     0.006 C 
BRANCH  20  21
ATOM     21  C   UNL     1     -11.847   3.618 -77.136  1.00  0.00     0.053 CG0
ATOM     22  G   UNL     1     -12.491   3.219 -75.824  1.00  0.00     0.000 G0
ENDBRANCH  20  21
ENDBRANCH  19  20
ENDBRANCH  18  19
ENDBRANCH   1  18
TORSDOF 3
ENDMDL
MODEL 6
REMARK VINA RESULT:   -11.643     16.029     17.762
REMARK INTER + INTRA:          13.858
REMARK INTER:                  -2.381
REMARK INTRA:                  16.239
REMARK UNBOUND:                32.988
REMARK SMILES CN1C2=CCC[C@H](CC[N+](C)(C)C)[C@@H]1CCCC2
REMARK SMILES IDX 14 1 2 2 1 3 3 4 4 5 5 7 7 9 6 10 8 12 9 13 10 14 11 15
REMARK SMILES IDX 12 16 13 17 15 18 16 19 17 20 18 21
REMARK H PARENT
REMARK Flexibility Score: 180.00
ROOT
ATOM      1  C   UNL     1     -26.053   9.453 -63.326  1.00  0.00     0.085 C 
ENDROOT
BRANCH   1   2
ATOM      2  N   UNL     1     -26.885   8.531 -64.328  1.00  0.00    -0.375 N 
ATOM      3  C   UNL     1     -26.873   8.593 -65.187  1.00  0.00     0.143 C 
BRANCH   2   4
ATOM      4  C   UNL     1     -27.248   7.549 -63.321  1.00  0.00     0.009 CG0
ATOM      5  C   UNL     1     -27.996   7.972 -62.271  1.00  0.00    -0.006 C 
ATOM      6  G   UNL     1     -26.161   6.685 -62.714  1.00  0.00     0.000 G0
BRANCH   5   7
ATOM      7  C   UNL     1     -28.182   9.467 -62.000  1.00  0.00     0.029 CG1
ATOM      8  G   UNL     1     -28.284  10.223 -63.332  1.00  0.00     0.000 G1
ENDBRANCH   5   7
ENDBRANCH   2   4
ENDBRANCH   1   2
BRANCH   1   9
ATOM      9  C   UNL     1     -26.851  10.902 -63.714  1.00  0.00     0.017 C 
BRANCH   9  10
ATOM     10  C   UNL     1     -28.292  10.243 -63.329  1.00  0.00     0.010 CG1
ATOM     11  G   UNL     1     -28.181   9.462 -62.012  1.00  0.00     0.000 G1
ENDBRANCH   9  10
BRANCH   9  12
ATOM     12  C   UNL     1     -26.954  10.663 -65.311  1.00  0.00     0.067 C 
BRANCH  12  13
ATOM     13  C   UNL     1     -28.071  11.375 -65.907  1.00  0.00     0.263 C 
BRANCH  13  14
ATOM     14  N   UNL     1     -27.786  12.569 -66.636  1.00  0.00    -0.331 N 
ATOM     15  C   UNL     1     -28.918  12.723 -67.549  1.00  0.00     0.334 C 
ATOM     16  C   UNL     1     -27.700  13.717 -65.776  1.00  0.00     0.334 C 
ATOM     17  C   UNL     1     -26.600  12.505 -67.447  1.00  0.00     0.334 C 
ENDBRANCH  13  14
ENDBRANCH  12  13
ENDBRANCH   9  12
ENDBRANCH   1   9
BRANCH   1  18
ATOM     18  C   UNL     1     -24.805   9.480 -64.350  1.00  0.00     0.025 C 
BRANCH  18  19
ATOM     19  C   UNL     1     -24.365   8.057 -63.967  1.00  0.00     0.003 C 
BRANCH  19  20
ATOM     20  C   UNL     1     -24.852   7.533 -62.631  1.00  0.00     0.006 C 
BRANCH  20  21
ATOM     21  C   UNL     1     -26.140   6.692 -62.716  1.00  0.00     0.053 CG0
ATOM     22  G   UNL     1     -27.259   7.503 -63.337  1.00  0.00     0.000 G0
ENDBRANCH  20  21
ENDBRANCH  19  20
ENDBRANCH  18  19
ENDBRANCH   1  18
TORSDOF 3
ENDMDL
MODEL 7
REMARK VINA RESULT:   -11.615      3.179      4.393
REMARK INTER + INTRA:          13.905
REMARK INTER:                  -1.897
REMARK INTRA:                  15.802
REMARK UNBOUND:                32.988
REMARK SMILES CN1C2=CCC[C@H](CC[N+](C)(C)C)[C@@H]1CCCC2
REMARK SMILES IDX 14 1 2 2 1 3 3 4 4 5 5 7 7 9 6 10 8 12 9 13 10 14 11 15
REMARK SMILES IDX 12 16 13 17 15 18 16 19 17 20 18 21
REMARK H PARENT
REMARK Flexibility Score: 180.00
ROOT
ATOM      1  C   UNL     1     -14.540   2.929 -77.272  1.00  0.00     0.085 C 
ENDROOT
BRANCH   1   2
ATOM      2  N   UNL     1     -15.308   3.219 -78.639  1.00  0.00    -0.375 N 
ATOM      3  C   UNL     1     -16.046   2.847 -78.885  1.00  0.00     0.143 C 
BRANCH   2   4
ATOM      4  C   UNL     1     -14.536   4.405 -78.967  1.00  0.00     0.009 CG0
ATOM      5  C   UNL     1     -13.199   4.256 -79.144  1.00  0.00    -0.006 C 
ATOM      6  G   UNL     1     -14.689   5.641 -78.104  1.00  0.00     0.000 G0
BRANCH   5   7
ATOM      7  C   UNL     1     -12.496   2.966 -78.712  1.00  0.00     0.029 CG1
ATOM      8  G   UNL     1     -13.408   1.764 -78.994  1.00  0.00     0.000 G1
ENDBRANCH   5   7
ENDBRANCH   2   4
ENDBRANCH   1   2
BRANCH   1   9
ATOM      9  C   UNL     1     -14.164   1.310 -77.619  1.00  0.00     0.017 C 
BRANCH   9  10
ATOM     10  C   UNL     1     -13.395   1.752 -78.986  1.00  0.00     0.010 CG1
ATOM     11  G   UNL     1     -12.493   2.965 -78.716  1.00  0.00     0.000 G1
ENDBRANCH   9  10
BRANCH   9  12
ATOM     12  C   UNL     1     -15.571   0.912 -78.313  1.00  0.00     0.067 C 
BRANCH  12  13
ATOM     13  C   UNL     1     -15.606  -0.476 -78.737  1.00  0.00     0.263 C 
BRANCH  13  14
ATOM     14  N   UNL     1     -16.853  -1.167 -78.649  1.00  0.00    -0.331 N 
ATOM     15  C   UNL     1     -17.243  -1.404 -80.039  1.00  0.00     0.334 C 
ATOM     16  C   UNL     1     -16.726  -2.423 -77.962  1.00  0.00     0.334 C 
ATOM     17  C   UNL     1     -17.914  -0.410 -78.041  1.00  0.00     0.334 C 
ENDBRANCH  13  14
ENDBRANCH  12  13
ENDBRANCH   9  12
ENDBRANCH   1   9
BRANCH   1  18
ATOM     18  C   UNL     1     -15.944   2.781 -76.487  1.00  0.00     0.025 C 
BRANCH  18  19
ATOM     19  C   UNL     1     -16.168   4.302 -76.452  1.00  0.00     0.003 C 
BRANCH  19  20
ATOM     20  C   UNL     1     -14.940   5.173 -76.618  1.00  0.00     0.006 C 
BRANCH  20  21
ATOM     21  C   UNL     1     -14.686   5.635 -78.066  1.00  0.00     0.053 CG0
ATOM     22  G   UNL     1     -14.534   4.437 -78.981  1.00  0.00     0.000 G0
ENDBRANCH  20  21
ENDBRANCH  19  20
ENDBRANCH  18  19
ENDBRANCH   1  18
TORSDOF 3
ENDMDL
MODEL 8
REMARK VINA RESULT:   -11.487      9.240     10.782
REMARK INTER + INTRA:          14.115
REMARK INTER:                  -1.899
REMARK INTRA:                  16.013
REMARK UNBOUND:                32.988
REMARK SMILES CN1C2=CCC[C@H](CC[N+](C)(C)C)[C@@H]1CCCC2
REMARK SMILES IDX 14 1 2 2 1 3 3 4 4 5 5 7 7 9 6 10 8 12 9 13 10 14 11 15
REMARK SMILES IDX 12 16 13 17 15 18 16 19 17 20 18 21
REMARK H PARENT
REMARK Flexibility Score: 180.00
ROOT
ATOM      1  C   UNL     1     -22.438   9.601 -69.883  1.00  0.00     0.085 C 
ENDROOT
BRANCH   1   2
ATOM      2  N   UNL     1     -21.479   9.201 -68.673  1.00  0.00    -0.375 N 
ATOM      3  C   UNL     1     -20.634   9.044 -68.739  1.00  0.00     0.143 C 
BRANCH   2   4
ATOM      4  C   UNL     1     -22.436   9.545 -67.637  1.00  0.00     0.009 CG0
ATOM      5  C   UNL     1     -23.588   8.832 -67.582  1.00  0.00    -0.006 C 
ATOM      6  G   UNL     1     -22.854  10.993 -67.477  1.00  0.00     0.000 G0
BRANCH   5   7
ATOM      7  C   UNL     1     -23.997   7.924 -68.745  1.00  0.00     0.029 CG1
ATOM      8  G   UNL     1     -22.743   7.307 -69.382  1.00  0.00     0.000 G1
ENDBRANCH   5   7
ENDBRANCH   2   4
ENDBRANCH   1   2
BRANCH   1   9
ATOM      9  C   UNL     1     -22.305   8.124 -70.712  1.00  0.00     0.017 C 
BRANCH   9  10
ATOM     10  C   UNL     1     -22.757   7.304 -69.378  1.00  0.00     0.010 CG1
ATOM     11  G   UNL     1     -24.006   7.947 -68.759  1.00  0.00     0.000 G1
ENDBRANCH   9  10
BRANCH   9  12
ATOM     12  C   UNL     1     -20.709   7.923 -70.527  1.00  0.00     0.067 C 
BRANCH  12  13
ATOM     13  C   UNL     1     -20.182   6.871 -71.377  1.00  0.00     0.263 C 
BRANCH  13  14
ATOM     14  N   UNL     1     -18.801   6.936 -71.737  1.00  0.00    -0.331 N 
ATOM     15  C   UNL     1     -18.088   6.454 -70.554  1.00  0.00     0.334 C 
ATOM     16  C   UNL     1     -18.498   6.093 -72.860  1.00  0.00     0.334 C 
ATOM     17  C   UNL     1     -18.316   8.262 -72.005  1.00  0.00     0.334 C 
ENDBRANCH  13  14
ENDBRANCH  12  13
ENDBRANCH   9  12
ENDBRANCH   1   9
BRANCH   1  18
ATOM     18  C   UNL     1     -21.257  10.468 -70.564  1.00  0.00     0.025 C 
BRANCH  18  19
ATOM     19  C   UNL     1     -21.339  11.561 -69.484  1.00  0.00     0.003 C 
BRANCH  19  20
ATOM     20  C   UNL     1     -22.682  11.751 -68.811  1.00  0.00     0.006 C 
BRANCH  20  21
ATOM     21  C   UNL     1     -22.823  11.015 -67.465  1.00  0.00     0.053 CG0
ATOM     22  G   UNL     1     -22.444   9.556 -67.621  1.00  0.00     0.000 G0
ENDBRANCH  20  21
ENDBRANCH  19  20
ENDBRANCH  18  19
ENDBRANCH   1  18
TORSDOF 3
ENDMDL
MODEL 9
REMARK VINA RESULT:   -11.443      4.320      6.100
REMARK INTER + INTRA:          14.187
REMARK INTER:                  -1.840
REMARK INTRA:                  16.027
REMARK UNBOUND:                32.988
REMARK SMILES CN1C2=CCC[C@H](CC[N+](C)(C)C)[C@@H]1CCCC2
REMARK SMILES IDX 14 1 2 2 1 3 3 4 4 5 5 7 7 9 6 10 8 12 9 13 10 14 11 15
REMARK SMILES IDX 12 16 13 17 15 18 16 19 17 20 18 21
REMARK H PARENT
REMARK Flexibility Score: 180.00
ROOT
ATOM      1  C   UNL     1     -13.715   2.064 -79.554  1.00  0.00     0.085 C 
ENDROOT
BRANCH   1   2
ATOM      2  N   UNL     1     -14.802   1.649 -78.463  1.00  0.00    -0.375 N 
ATOM      3  C   UNL     1     -14.644   1.525 -77.625  1.00  0.00     0.143 C 
BRANCH   2   4
ATOM      4  C   UNL     1     -15.945   1.918 -79.317  1.00  0.00     0.009 CG0
ATOM      5  C   UNL     1     -16.067   1.187 -80.454  1.00  0.00    -0.006 C 
ATOM      6  G   UNL     1     -16.232   3.348 -79.729  1.00  0.00     0.000 G0
BRANCH   5   7
ATOM      7  C   UNL     1     -14.896   0.345 -80.966  1.00  0.00     0.029 CG1
ATOM      8  G   UNL     1     -14.131  -0.251 -79.776  1.00  0.00     0.000 G1
ENDBRANCH   5   7
ENDBRANCH   2   4
ENDBRANCH   1   2
BRANCH   1   9
ATOM      9  C   UNL     1     -12.809   0.631 -79.456  1.00  0.00     0.017 C 
BRANCH   9  10
ATOM     10  C   UNL     1     -14.131  -0.260 -79.795  1.00  0.00     0.010 CG1
ATOM     11  G   UNL     1     -14.886   0.345 -80.986  1.00  0.00     0.000 G1
ENDBRANCH   9  10
BRANCH   9  12
ATOM     12  C   UNL     1     -12.868   0.455 -77.848  1.00  0.00     0.067 C 
BRANCH  12  13
ATOM     13  C   UNL     1     -11.867  -0.474 -77.356  1.00  0.00     0.263 C 
BRANCH  13  14
ATOM     14  N   UNL     1     -12.252  -1.379 -76.320  1.00  0.00    -0.331 N 
ATOM     15  C   UNL     1     -12.762  -0.522 -75.250  1.00  0.00     0.334 C 
ATOM     16  C   UNL     1     -13.285  -2.281 -76.750  1.00  0.00     0.334 C 
ATOM     17  C   UNL     1     -11.169  -2.144 -75.763  1.00  0.00     0.334 C 
ENDBRANCH  13  14
ENDBRANCH  12  13
ENDBRANCH   9  12
ENDBRANCH   1   9
BRANCH   1  18
ATOM     18  C   UNL     1     -12.961   3.005 -78.479  1.00  0.00     0.025 C 
BRANCH  18  19
ATOM     19  C   UNL     1     -14.070   4.071 -78.525  1.00  0.00     0.003 C 
BRANCH  19  20
ATOM     20  C   UNL     1     -14.887   4.146 -79.799  1.00  0.00     0.006 C 
BRANCH  20  21
ATOM     21  C   UNL     1     -16.214   3.366 -79.742  1.00  0.00     0.053 CG0
ATOM     22  G   UNL     1     -15.965   1.928 -79.336  1.00  0.00     0.000 G0
ENDBRANCH  20  21
ENDBRANCH  19  20
ENDBRANCH  18  19
ENDBRANCH   1  18
TORSDOF 3
ENDMDL
