@<TRIPOS>MOLECULE
*****
 46 47 0 0 0
SMALL
GASTEIGER

@<TRIPOS>ATOM
      1 C         -15.6890    6.8000  -75.1540 C.2     1  UNL1        0.0648
      2 N         -14.8630    6.4230  -76.0840 N.2     1  UNL1       -0.1912
      3 C         -16.4100    8.0460  -75.4480 C.2     1  UNL1        0.0648
      4 N         -15.8220    9.1570  -75.1130 N.2     1  UNL1       -0.1912
      5 N         -14.8670    9.0810  -74.0790 N.pl3   1  UNL1       -0.2385
      6 C         -14.4370   10.2830  -73.4680 C.3     1  UNL1        0.1421
      7 H         -14.5080    8.2120  -73.7890 H       1  UNL1        0.1711
      8 N         -15.4290   11.0730  -73.1870 N.3     1  UNL1       -0.2852
      9 N         -13.0680   10.4550  -73.1330 N.3     1  UNL1       -0.2852
     10 H         -12.5380    9.6260  -73.1350 H       1  UNL1        0.1249
     11 C         -15.5490   12.0790  -72.1380 C.3     1  UNL1       -0.0012
     12 C         -14.2530   12.2360  -71.3730 C.3     1  UNL1       -0.0392
     13 C         -12.3180   11.6580  -72.7840 C.3     1  UNL1       -0.0012
     14 C         -13.2260   12.7710  -72.3340 C.3     1  UNL1       -0.0392
     15 N         -15.4420    6.2660  -77.3580 N.pl3   1  UNL1       -0.2385
     16 C         -14.9020    5.2380  -78.1970 C.3     1  UNL1        0.1421
     17 H         -16.1860    6.8380  -77.6580 H       1  UNL1        0.1711
     18 N         -13.6940    4.8740  -77.9810 N.3     1  UNL1       -0.2852
     19 N         -15.7860    4.6940  -79.1580 N.3     1  UNL1       -0.2852
     20 H         -16.5450    5.2880  -79.3570 H       1  UNL1        0.1249
     21 C         -12.8790    3.7970  -78.5190 C.3     1  UNL1       -0.0012
     22 C         -13.7910    2.6110  -78.7040 C.3     1  UNL1       -0.0392
     23 C         -15.8260    3.4700  -79.9100 C.3     1  UNL1       -0.0012
     24 C         -14.4930    2.7900  -80.0320 C.3     1  UNL1       -0.0392
     25 H         -17.3468    8.0073  -74.9324 H       1  UNL1        0.0861
     26 H         -15.8271    6.2678  -74.2807 H       1  UNL1        0.0861
     27 H         -13.7443   11.0868  -73.6058 H       1  UNL1        0.0859
     28 H         -15.5889   11.5914  -74.0508 H       1  UNL1        0.1249
     29 H         -16.3207   11.7831  -71.4585 H       1  UNL1        0.0425
     30 H         -15.7855   13.0167  -72.5960 H       1  UNL1        0.0425
     31 H         -13.9370   11.2881  -70.9901 H       1  UNL1        0.0278
     32 H         -14.3805   12.9029  -70.5460 H       1  UNL1        0.0278
     33 H         -11.7683   11.9847  -73.6419 H       1  UNL1        0.0425
     34 H         -11.6603   11.4173  -71.9751 H       1  UNL1        0.0425
     35 H         -12.6460   13.5279  -71.8486 H       1  UNL1        0.0278
     36 H         -13.7228   13.1870  -73.1855 H       1  UNL1        0.0278
     37 H         -14.3187    4.7501  -78.9498 H       1  UNL1        0.0859
     38 H         -13.1525    5.7110  -78.1970 H       1  UNL1        0.1249
     39 H         -12.0924    3.5537  -77.8356 H       1  UNL1        0.0425
     40 H         -12.4285    4.0831  -79.4464 H       1  UNL1        0.0425
     41 H         -14.5092    2.5736  -77.9117 H       1  UNL1        0.0278
     42 H         -13.2342    1.6974  -78.6886 H       1  UNL1        0.0278
     43 H         -16.1837    3.6902  -80.8941 H       1  UNL1        0.0425
     44 H         -16.4705    2.7998  -79.3805 H       1  UNL1        0.0425
     45 H         -14.6423    1.8254  -80.4704 H       1  UNL1        0.0278
     46 H         -13.8715    3.4155  -80.6382 H       1  UNL1        0.0278
@<TRIPOS>BOND
     1     1     2    2
     2     1     3    1
     3     1    26    1
     4     2    15    1
     5     3     4    2
     6     3    25    1
     7     4     5    1
     8     5     7    1
     9     5     6    1
    10     6     9    1
    11     6     8    1
    12     6    27    1
    13     8    11    1
    14     8    28    1
    15     9    10    1
    16     9    13    1
    17    11    12    1
    18    11    29    1
    19    11    30    1
    20    12    14    1
    21    12    31    1
    22    12    32    1
    23    13    14    1
    24    13    33    1
    25    13    34    1
    26    14    35    1
    27    14    36    1
    28    15    16    1
    29    15    17    1
    30    16    19    1
    31    16    18    1
    32    16    37    1
    33    18    21    1
    34    18    38    1
    35    19    23    1
    36    19    20    1
    37    21    22    1
    38    21    39    1
    39    21    40    1
    40    22    24    1
    41    22    41    1
    42    22    42    1
    43    23    24    1
    44    23    43    1
    45    23    44    1
    46    24    45    1
    47    24    46    1
